
Build Time: Nov 20 2020 15:49:04 EST 
Executable Path: D:/Archivos_de_programa/ANSYS/ANSYS Inc/ANSYS Student/v211/fluent/ntbin/win64/fluent.exe

-------------------------------------------------------------------------------
ID    Hostname  Core  O.S.         PID    Vendor                          
-------------------------------------------------------------------------------
n3    temis     4/8  Windows-x64  4764   Intel(R) Core(TM) i7-8550U      
n2    temis     3/8  Windows-x64  14996  Intel(R) Core(TM) i7-8550U      
n1    temis     2/8  Windows-x64  14752  Intel(R) Core(TM) i7-8550U      
n0*   temis     1/8  Windows-x64  9932   Intel(R) Core(TM) i7-8550U      
host  temis          Windows-x64  17140  Intel(R) Core(TM) i7-8550U      

MPI Option Selected: intel
Selected system interconnect: default
-------------------------------------------------------------------------------
Reading "D:\0_Andres\1_Universidad\MUSE\AAV\Trabajos_AAV\Trabajo 1 - Viking_files\dp0\SYS-11\MECH\SYS-11.1.msh"...
Buffering for file scan...

  127511 nodes, binary.
   10966 nodes, binary.
 1042316 mixed interior faces, zone  1, binary.
    8539 mixed symmetry faces, zone  5, binary.
    7729 triangular wall faces, zone  6, binary.
    1424 triangular velocity-inlet faces, zone  7, binary.
    1376 triangular pressure-outlet faces, zone  8, binary.
  487280 mixed cells, zone  2, binary.


Building...
     mesh
	auto partitioning mesh by Metis (fast),
	distributing mesh
		parts....,
		faces....,
		nodes....,
		cells....,
        bandwidth reduction using Reverse Cuthill-McKee: 127685/2392 = 53.38
     materials,
     interface,
     domains,
	mixture
     zones,
	outlet
	inlet
	capsula
	symmetry
	solid
	interior-solidSetting solid (mixture) ... Done.

Applying mesh operation "Change Zone Type"
 Setting zone id of solid to 2.
 Setting zone id of inlet to 7.
 Setting zone id of interior-solid to 1.
 Setting zone id of symmetry to 5.
 Setting zone id of capsula to 6.
 Setting zone id of outlet to 8.
Done.
Setting solid (mixture) ... Done.
Setting inlet (mixture) ... Done.
Setting interior-solid (mixture) ... Done.
Setting symmetry (mixture) ... Done.
Setting capsula (mixture) ... Done.
Setting outlet (mixture) ... Done.

     parallel,
Done.

Preparing mesh for display...
Done.
"Updating Setup cell..."
"Updating Solution cell..."
Initialization based on settings...
Fast-loading "D:\Archivos_de_programa\ANSYS\ANSYS Inc\ANSYS Student\v211\fluent\fluent21.1.0\\addons\afd\lib\hdfio.bin"
Done.

Writing to temis:"D:\0_Andres\1_Universidad\MUSE\AAV\Trabajos_AAV\Trabajo 1 - Viking_files\dp0\FLU-10\Fluent\SYS-11.1-Setup-Output.cas.h5" in NODE0 mode and compression level 1 ...
  Writing mesh ...
      487280 cells,     1 zone  ...
     1061384 faces,     5 zones ...
      138477 nodes,     1 zone  ...
  Done.
Done.

Creating multigrid levels... 
 Grid Level  0: 487280 cells, 1061384 faces, 138477 nodes;   4 clusters
 Grid Level  1:  21627 cells, 367575 faces, 138477 nodes;   4 clusters
 Grid Level  1:  21627 cells, 124996 faces,      0 nodes
 Grid Level  2:   4471 cells, 259128 faces, 138477 nodes;   4 clusters
 Grid Level  2:   4471 cells,  31410 faces,      0 nodes
 Grid Level  3:   1124 cells, 199011 faces, 138477 nodes;   4 clusters
 Grid Level  3:   1124 cells,   8678 faces,      0 nodes
Done.


FMG: Converge FAS on level 3 [eps = 0.001000, max-iter=400]
.......... -> Normalized residual = 0.246444 
.......... -> Normalized residual = 0.114338 
.......... -> Normalized residual = 0.0375598 
.......... -> Normalized residual = 0.0458224 
.......... -> Normalized residual = 0.0338773 
.......... -> Normalized residual = 0.0168055 
.......... -> Normalized residual = 0.00730941 
.......... -> Normalized residual = 0.00435155 
.......... -> Normalized residual = 0.00282641 
.......... -> Normalized residual = 0.00178853 
.......... -> Normalized residual = 0.00146902 
.......... -> Normalized residual = 0.00143194 
.......... -> Normalized residual = 0.00140952 
.......... -> Normalized residual = 0.00141216 
.......... -> Normalized residual = 0.00143054 
.......... -> Normalized residual = 0.00144226 
.......... -> Normalized residual = 0.00144253 
.......... -> Normalized residual = 0.00143535 
.......... -> Normalized residual = 0.0014236 
.......... -> Normalized residual = 0.0014078 
.......... -> Normalized residual = 0.00138775 
.......... -> Normalized residual = 0.0013638 
.......... -> Normalized residual = 0.00133701 
.......... -> Normalized residual = 0.00130863 
.......... -> Normalized residual = 0.0012797 
.......... -> Normalized residual = 0.00125085 
.......... -> Normalized residual = 0.00122214 
.......... -> Normalized residual = 0.0011951 
.......... -> Normalized residual = 0.00116844 
.......... -> Normalized residual = 0.00114241 
.......... -> Normalized residual = 0.00111739 
.......... -> Normalized residual = 0.00109351 
.......... -> Normalized residual = 0.00107055 
.......... -> Normalized residual = 0.00104855 
.......... -> Normalized residual = 0.00102735 
.......... -> Normalized residual = 0.00100696 
....
 FMG: FAS converged.

FMG: Finished work on level = 3 

FMG: Interpolate solution on next level .. . end 


FMG: Converge FAS on level 2 [eps = 0.001000, max-iter=200]
.......... -> Normalized residual = 0.0562734 
.......... -> Normalized residual = 0.0267313 
.......... -> Normalized residual = 0.0192218 
.......... -> Normalized residual = 0.0154932 
.......... -> Normalized residual = 0.00665348 
.......... -> Normalized residual = 0.00390821 
.......... -> Normalized residual = 0.00326548 
.......... -> Normalized residual = 0.00306304 
.......... -> Normalized residual = 0.00341547 
.......... -> Normalized residual = 0.00322771 
.......... -> Normalized residual = 0.00278708 
.......... -> Normalized residual = 0.00246042 
.......... -> Normalized residual = 0.00229533 
.......... -> Normalized residual = 0.00219987 
.......... -> Normalized residual = 0.00210908 
.......... -> Normalized residual = 0.00200645 
.......... -> Normalized residual = 0.00190359 
.......... -> Normalized residual = 0.00181065 
.......... -> Normalized residual = 0.00172871 
.......... -> Normalized residual = 0.00165452 

 FMG: FAS reached maximum iterations. 
 Normalized residual = 0.00165452 

FMG: Finished work on level = 2 

FMG: Interpolate solution on next level .. . end 


FMG: Converge FAS on level 1 [eps = 0.001000, max-iter=100]
.......... -> Normalized residual = 0.0807632 
.......... -> Normalized residual = 0.0280738 
.......... -> Normalized residual = 0.0172226 
.......... -> Normalized residual = 0.0135677 
.......... -> Normalized residual = 0.009176 
.......... -> Normalized residual = 0.0059553 
.......... -> Normalized residual = 0.00370329 
.......... -> Normalized residual = 0.00288025 
.......... -> Normalized residual = 0.00312687 
.......... -> Normalized residual = 0.00280535 

 FMG: FAS reached maximum iterations. 
 Normalized residual = 0.00280535 

FMG: Finished work on level = 1 

FMG: Interpolate solution on next level .. . end 
0.
 time step reduced in 37 cells due to excessive temperature change
->1.->2.->3.<<<

  iter          cd          cl          cm       t_max     time/iter
     1  1.4735e+00  1.6507e-01 -2.7592e-02  8.8473e+02  2:29:57 2999
     2  1.4753e+00  1.6473e-01 -2.8106e-02  8.8487e+02  2:29:54 2998
     3  1.4756e+00  1.6464e-01 -2.8059e-02  9.0670e+02  2:19:52 2997
     4  1.4755e+00  1.6469e-01 -2.7795e-02  9.3446e+02  2:11:49 2996
     5  1.4752e+00  1.6483e-01 -2.7423e-02  9.5674e+02  2:15:22 2995
     6  1.4749e+00  1.6502e-01 -2.7006e-02  9.7466e+02  2:08:13 2994
     7  1.4746e+00  1.6525e-01 -2.6581e-02  9.8862e+02  2:02:30 2993
     8  1.4744e+00  1.6551e-01 -2.6163e-02  9.9835e+02  1:57:55 2992
     9  1.4743e+00  1.6577e-01 -2.5763e-02  1.0056e+03  2:04:12 2991
    10  1.4742e+00  1.6604e-01 -2.5380e-02  1.0090e+03  1:59:16 2990
    11  1.4742e+00  1.6632e-01 -2.5015e-02  1.0090e+03  1:55:18 2989

  iter          cd          cl          cm       t_max     time/iter
    12  1.4742e+00  1.6659e-01 -2.4664e-02  1.0059e+03  1:52:08 2988
    13  1.4743e+00  1.6685e-01 -2.4333e-02  1.0001e+03  1:59:33 2987
    14  1.4744e+00  1.6711e-01 -2.4024e-02  9.9175e+02  1:55:31 2986
    15  1.4746e+00  1.6736e-01 -2.3737e-02  9.8266e+02  1:52:17 2985
    16  1.4748e+00  1.6759e-01 -2.3469e-02  9.7325e+02  1:49:41 2984
    17  1.4750e+00  1.6782e-01 -2.3225e-02  9.6331e+02  1:47:36 2983
    18  1.4753e+00  1.6804e-01 -2.3002e-02  9.5307e+02  1:55:53 2982
    19  1.4756e+00  1.6824e-01 -2.2797e-02  9.4267e+02  1:52:33 2981
    20  1.4759e+00  1.6844e-01 -2.2609e-02  9.3226e+02  1:49:52 2980
    21  1.4762e+00  1.6862e-01 -2.2442e-02  9.2193e+02  1:47:44 2979
    22  1.4766e+00  1.6879e-01 -2.2293e-02  9.1176e+02  1:55:56 2978

  iter          cd          cl          cm       t_max     time/iter
    23  1.4769e+00  1.6895e-01 -2.2161e-02  9.0182e+02  1:52:34 2977
    24  1.4773e+00  1.6910e-01 -2.2047e-02  8.9215e+02  1:49:52 2976
    25  1.4777e+00  1.6924e-01 -2.1947e-02  8.8668e+02  1:47:41 2975
    26  1.4780e+00  1.6936e-01 -2.1862e-02  8.8685e+02  1:45:57 2974
    27  1.4784e+00  1.6948e-01 -2.1788e-02  8.8704e+02  1:54:28 2973
    28  1.4788e+00  1.6959e-01 -2.1728e-02  8.8724e+02  1:51:21 2972
    29  1.4792e+00  1.6968e-01 -2.1680e-02  8.8747e+02  1:48:52 2971
    30  1.4796e+00  1.6977e-01 -2.1643e-02  8.8771e+02  1:46:51 2970
    31  1.4800e+00  1.6985e-01 -2.1615e-02  8.8797e+02  1:55:09 2969
    32  1.4804e+00  1.6992e-01 -2.1594e-02  8.8825e+02  1:51:52 2968
    33  1.4808e+00  1.6998e-01 -2.1580e-02  8.8855e+02  1:49:15 2967

  iter          cd          cl          cm       t_max     time/iter
    34  1.4812e+00  1.7004e-01 -2.1573e-02  8.8886e+02  1:47:09 2966
    35  1.4815e+00  1.7009e-01 -2.1570e-02  8.8920e+02  1:55:20 2965
    36  1.4819e+00  1.7013e-01 -2.1574e-02  8.8957e+02  1:52:00 2964
    37  1.4822e+00  1.7016e-01 -2.1582e-02  8.8995e+02  1:49:19 2963
    38  1.4826e+00  1.7019e-01 -2.1594e-02  8.9035e+02  1:47:10 2962
    39  1.4829e+00  1.7021e-01 -2.1608e-02  8.9078e+02  1:55:19 2961
    40  1.4832e+00  1.7023e-01 -2.1627e-02  8.9124e+02  1:51:57 2960
    41  1.4835e+00  1.7024e-01 -2.1647e-02  8.9172e+02  1:49:16 2959
    42  1.4837e+00  1.7024e-01 -2.1668e-02  8.9223e+02  1:47:06 2958
    43  1.4839e+00  1.7024e-01 -2.1690e-02  8.9277e+02  1:55:13 2957
    44  1.4842e+00  1.7024e-01 -2.1715e-02  8.9333e+02  1:51:51 2956

  iter          cd          cl          cm       t_max     time/iter
    45  1.4843e+00  1.7023e-01 -2.1740e-02  8.9393e+02  1:49:09 2955
    46  1.4845e+00  1.7022e-01 -2.1764e-02  8.9456e+02  1:46:59 2954
    47  1.4846e+00  1.7020e-01 -2.1788e-02  8.9521e+02  1:45:15 2953
    48  1.4847e+00  1.7018e-01 -2.1809e-02  8.9590e+02  1:53:41 2952
    49  1.4848e+00  1.7015e-01 -2.1829e-02  8.9662e+02  1:50:36 2951
    50  1.4848e+00  1.7013e-01 -2.1848e-02  8.9737e+02  1:48:07 2950
    51  1.4848e+00  1.7009e-01 -2.1866e-02  8.9815e+02  1:55:57 2949
    52  1.4847e+00  1.7006e-01 -2.1882e-02  8.9897e+02  1:52:23 2948
    53  1.4847e+00  1.7002e-01 -2.1896e-02  8.9982e+02  1:49:31 2947
    54  1.4846e+00  1.6997e-01 -2.1909e-02  9.0070e+02  1:47:14 2946
    55  1.4844e+00  1.6993e-01 -2.1920e-02  9.0162e+02  1:45:23 2945

  iter          cd          cl          cm       t_max     time/iter
    56  1.4842e+00  1.6988e-01 -2.1929e-02  9.0257e+02  1:53:43 2944
    57  1.4840e+00  1.6983e-01 -2.1937e-02  9.0356e+02  1:50:34 2943
    58  1.4838e+00  1.6977e-01 -2.1942e-02  9.0459e+02  1:48:02 2942
    59  1.4835e+00  1.6971e-01 -2.1945e-02  9.0565e+02  1:46:00 2941
    60  1.4832e+00  1.6965e-01 -2.1946e-02  9.0675e+02  1:54:11 2940
    61  1.4828e+00  1.6959e-01 -2.1945e-02  9.0789e+02  1:50:54 2939
    62  1.4824e+00  1.6952e-01 -2.1942e-02  9.0906e+02  1:48:17 2938
    63  1.4820e+00  1.6945e-01 -2.1938e-02  9.1028e+02  1:46:10 2937
    64  1.4816e+00  1.6938e-01 -2.1931e-02  9.1153e+02  1:44:29 2936
    65  1.4811e+00  1.6930e-01 -2.1923e-02  9.1281e+02  1:52:54 2935
    66  1.4805e+00  1.6922e-01 -2.1914e-02  9.1413e+02  1:49:51 2934

  iter          cd          cl          cm       t_max     time/iter
    67  1.4800e+00  1.6914e-01 -2.1903e-02  9.1549e+02  1:47:24 2933
    68  1.4794e+00  1.6906e-01 -2.1890e-02  9.1688e+02  1:45:27 2932
    69  1.4788e+00  1.6898e-01 -2.1877e-02  9.1830e+02  1:43:52 2931
    70  1.4782e+00  1.6889e-01 -2.1862e-02  9.1976e+02  1:52:22 2930
    71  1.4775e+00  1.6880e-01 -2.1846e-02  9.2125e+02  1:49:23 2929
    72  1.4768e+00  1.6871e-01 -2.1828e-02  9.2277e+02  1:47:00 2928
    73  1.4761e+00  1.6861e-01 -2.1810e-02  9.2433e+02  1:45:05 2927
    74  1.4753e+00  1.6851e-01 -2.1791e-02  9.2592e+02  1:53:18 2926
    75  1.4746e+00  1.6841e-01 -2.1770e-02  9.2753e+02  1:50:06 2925
    76  1.4738e+00  1.6831e-01 -2.1748e-02  9.2918e+02  1:47:33 2924
    77  1.4729e+00  1.6821e-01 -2.1726e-02  9.3086e+02  1:45:30 2923

  iter          cd          cl          cm       t_max     time/iter
    78  1.4721e+00  1.6810e-01 -2.1703e-02  9.3256e+02  1:53:35 2922
    79  1.4712e+00  1.6800e-01 -2.1680e-02  9.3430e+02  1:50:19 2921
    80  1.4703e+00  1.6789e-01 -2.1655e-02  9.3606e+02  1:47:41 2920
    81  1.4694e+00  1.6777e-01 -2.1630e-02  9.3784e+02  1:45:35 2919
    82  1.4685e+00  1.6766e-01 -2.1605e-02  9.3964e+02  1:53:37 2918
    83  1.4676e+00  1.6755e-01 -2.1579e-02  9.4145e+02  1:50:18 2917
    84  1.4666e+00  1.6743e-01 -2.1553e-02  9.4327e+02  1:47:39 2916
    85  1.4656e+00  1.6731e-01 -2.1526e-02  9.4509e+02  1:45:32 2915
    86  1.4646e+00  1.6719e-01 -2.1499e-02  9.4693e+02  1:43:49 2914
    87  1.4636e+00  1.6707e-01 -2.1471e-02  9.4876e+02  1:52:09 2913
    88  1.4626e+00  1.6695e-01 -2.1443e-02  9.5061e+02  1:49:07 2912

  iter          cd          cl          cm       t_max     time/iter
    89  1.4615e+00  1.6682e-01 -2.1415e-02  9.5245e+02  1:46:40 2911
    90  1.4605e+00  1.6670e-01 -2.1386e-02  9.5430e+02  1:44:42 2910
    91  1.4594e+00  1.6657e-01 -2.1357e-02  9.5615e+02  1:43:08 2909
    92  1.4583e+00  1.6644e-01 -2.1329e-02  9.5800e+02  1:51:33 2908
    93  1.4572e+00  1.6631e-01 -2.1299e-02  9.5984e+02  1:48:35 2907
    94  1.4561e+00  1.6618e-01 -2.1269e-02  9.6169e+02  1:46:13 2906
    95  1.4550e+00  1.6605e-01 -2.1240e-02  9.6352e+02  1:54:00 2905
    96  1.4539e+00  1.6592e-01 -2.1209e-02  9.6536e+02  1:50:31 2904

 time step reduced in 1 cells due to excessive temperature change
    97  1.4528e+00  1.6579e-01 -2.1179e-02  9.6719e+02  1:47:45 2903

 time step reduced in 1 cells due to excessive temperature change
    98  1.4517e+00  1.6565e-01 -2.1149e-02  9.6902e+02  1:45:31 2902

 time step reduced in 1 cells due to excessive temperature change
    99  1.4505e+00  1.6552e-01 -2.1119e-02  9.7084e+02  1:43:43 2901

  iter          cd          cl          cm       t_max     time/iter
   100  1.4494e+00  1.6538e-01 -2.1088e-02  9.7266e+02  1:51:57 2900

 time step reduced in 1 cells due to excessive temperature change
   101  1.4482e+00  1.6525e-01 -2.1057e-02  9.7448e+02  1:48:51 2899

 time step reduced in 1 cells due to excessive temperature change
   102  1.4470e+00  1.6511e-01 -2.1027e-02  9.7629e+02  1:46:22 2898

 time step reduced in 1 cells due to excessive temperature change
   103  1.4458e+00  1.6497e-01 -2.0995e-02  9.7808e+02  1:44:23 2897
   104  1.4446e+00  1.6483e-01 -2.0964e-02  9.7986e+02  1:52:26 2896
   105  1.4434e+00  1.6469e-01 -2.0932e-02  9.8163e+02  1:49:13 2895
   106  1.4422e+00  1.6454e-01 -2.0900e-02  9.8339e+02  1:46:38 2894
   107  1.4409e+00  1.6440e-01 -2.0868e-02  9.8512e+02  1:44:34 2893
   108  1.4397e+00  1.6426e-01 -2.0836e-02  9.8684e+02  1:52:33 2892
   109  1.4385e+00  1.6412e-01 -2.0803e-02  9.8854e+02  1:49:17 2891
   110  1.4372e+00  1.6397e-01 -2.0770e-02  9.9022e+02  1:46:40 2890

  iter          cd          cl          cm       t_max     time/iter
   111  1.4360e+00  1.6383e-01 -2.0737e-02  9.9187e+02  1:44:33 2889

 time step reduced in 2 cells due to excessive temperature change
   112  1.4347e+00  1.6368e-01 -2.0703e-02  9.9350e+02  1:52:30 2888

 time step reduced in 2 cells due to excessive temperature change
   113  1.4335e+00  1.6354e-01 -2.0670e-02  9.9510e+02  1:49:13 2887

 time step reduced in 1 cells due to excessive temperature change
   114  1.4322e+00  1.6340e-01 -2.0636e-02  9.9666e+02  1:46:35 2886

 time step reduced in 2 cells due to excessive temperature change
   115  1.4309e+00  1.6325e-01 -2.0601e-02  9.9819e+02  1:44:28 2885

 time step reduced in 4 cells due to excessive temperature change
   116  1.4297e+00  1.6311e-01 -2.0567e-02  9.9969e+02  1:42:46 2884

 time step reduced in 2 cells due to excessive temperature change
   117  1.4284e+00  1.6297e-01 -2.0532e-02  1.0011e+03  1:41:25 2883

 time step reduced in 2 cells due to excessive temperature change
   118  1.4271e+00  1.6282e-01 -2.0497e-02  1.0026e+03  1:49:55 2882

 time step reduced in 3 cells due to excessive temperature change
   119  1.4259e+00  1.6268e-01 -2.0462e-02  1.0039e+03  1:47:07 2881

 time step reduced in 4 cells due to excessive temperature change
   120  1.4246e+00  1.6254e-01 -2.0427e-02  1.0053e+03  1:44:52 2880

 time step reduced in 4 cells due to excessive temperature change
   121  1.4233e+00  1.6240e-01 -2.0391e-02  1.0065e+03  1:43:03 2879

 time step reduced in 3 cells due to excessive temperature change

  iter          cd          cl          cm       t_max     time/iter
   122  1.4221e+00  1.6226e-01 -2.0355e-02  1.0078e+03  1:41:36 2878

 time step reduced in 3 cells due to excessive temperature change
   123  1.4208e+00  1.6212e-01 -2.0319e-02  1.0089e+03  1:50:01 2877

 time step reduced in 2 cells due to excessive temperature change
   124  1.4196e+00  1.6198e-01 -2.0284e-02  1.0101e+03  1:47:10 2876

 time step reduced in 1 cells due to excessive temperature change
   125  1.4183e+00  1.6184e-01 -2.0248e-02  1.0112e+03  1:44:52 2875

 time step reduced in 1 cells due to excessive temperature change
   126  1.4171e+00  1.6170e-01 -2.0213e-02  1.0122e+03  1:52:36 2874

 time step reduced in 1 cells due to excessive temperature change
   127  1.4159e+00  1.6156e-01 -2.0177e-02  1.0133e+03  1:49:12 2873

 time step reduced in 1 cells due to excessive temperature change
   128  1.4146e+00  1.6143e-01 -2.0141e-02  1.0143e+03  1:46:29 2872

 time step reduced in 1 cells due to excessive temperature change
   129  1.4134e+00  1.6129e-01 -2.0105e-02  1.0152e+03  1:53:52 2871

 time step reduced in 2 cells due to excessive temperature change
   130  1.4122e+00  1.6116e-01 -2.0068e-02  1.0161e+03  1:50:12 2870

 time step reduced in 2 cells due to excessive temperature change
   131  1.4110e+00  1.6102e-01 -2.0033e-02  1.0170e+03  1:47:15 2869
Temperature limited to 1.000000e+00 in 5 cells during the last 11 iterations

 time step reduced in 2 cells due to excessive temperature change
   132  1.4098e+00  1.6089e-01 -1.9996e-02  1.0178e+03  1:44:53 2868

 time step reduced in 2 cells due to excessive temperature change

  iter          cd          cl          cm       t_max     time/iter
   133  1.4086e+00  1.6076e-01 -1.9960e-02  1.0186e+03  1:52:33 2867

 time step reduced in 2 cells due to excessive temperature change
   134  1.4074e+00  1.6063e-01 -1.9924e-02  1.0193e+03  1:49:07 2866

 time step reduced in 3 cells due to excessive temperature change
   135  1.4062e+00  1.6050e-01 -1.9887e-02  1.0200e+03  1:46:22 2865

 time step reduced in 2 cells due to excessive temperature change
   136  1.4050e+00  1.6037e-01 -1.9851e-02  1.0205e+03  1:44:09 2864

 time step reduced in 1 cells due to excessive temperature change
   137  1.4038e+00  1.6025e-01 -1.9814e-02  1.0211e+03  1:51:55 2863

 time step reduced in 1 cells due to excessive temperature change
   138  1.4027e+00  1.6012e-01 -1.9777e-02  1.0215e+03  1:48:35 2862

 temperature limited to 1.000000e+00 in 1 cells on zone 2 
   139  1.4015e+00  1.6000e-01 -1.9741e-02  1.0219e+03  1:45:55 2861

 temperature limited to 1.000000e+00 in 1 cells on zone 2 
   140  1.4004e+00  1.5988e-01 -1.9703e-02  1.0221e+03  1:53:18 2860

 temperature limited to 1.000000e+00 in 1 cells on zone 2 
   141  1.3992e+00  1.5975e-01 -1.9666e-02  1.0223e+03  1:49:40 2859

 temperature limited to 1.000000e+00 in 1 cells on zone 2 
   142  1.3981e+00  1.5963e-01 -1.9628e-02  1.0223e+03  1:46:45 2858
Temperature limited to 1.000000e+00 in 11 cells during the last 11 iterations

 temperature limited to 1.000000e+00 in 1 cells on zone 2 
   143  1.3969e+00  1.5952e-01 -1.9591e-02  1.0221e+03  1:53:57 2857

 temperature limited to 1.000000e+00 in 1 cells on zone 2 

  iter          cd          cl          cm       t_max     time/iter
   144  1.3958e+00  1.5940e-01 -1.9554e-02  1.0217e+03  1:50:10 2856

 temperature limited to 1.000000e+00 in 1 cells on zone 2 
   145  1.3947e+00  1.5928e-01 -1.9516e-02  1.0216e+03  1:47:08 2855

 temperature limited to 1.000000e+00 in 1 cells on zone 2 
   146  1.3936e+00  1.5917e-01 -1.9478e-02  1.0216e+03  1:44:42 2854

 temperature limited to 1.000000e+00 in 1 cells on zone 2 
   147  1.3925e+00  1.5905e-01 -1.9440e-02  1.0217e+03  1:52:16 2853

 temperature limited to 1.000000e+00 in 1 cells on zone 2 
   148  1.3914e+00  1.5894e-01 -1.9402e-02  1.0219e+03  1:48:48 2852

 temperature limited to 1.000000e+00 in 1 cells on zone 2 
   149  1.3903e+00  1.5883e-01 -1.9364e-02  1.0221e+03  1:46:01 2851

 temperature limited to 1.000000e+00 in 1 cells on zone 2 
   150  1.3892e+00  1.5872e-01 -1.9325e-02  1.0224e+03  1:43:47 2850

 temperature limited to 1.000000e+00 in 1 cells on zone 2 
   151  1.3882e+00  1.5861e-01 -1.9287e-02  1.0227e+03  1:51:29 2849

 time step reduced in 1 cells due to excessive temperature change

 temperature limited to 1.000000e+00 in 1 cells on zone 2 
   152  1.3871e+00  1.5851e-01 -1.9248e-02  1.0230e+03  1:48:09 2848

 time step reduced in 1 cells due to excessive temperature change

 temperature limited to 1.000000e+00 in 1 cells on zone 2 
   153  1.3860e+00  1.5840e-01 -1.9210e-02  1.0233e+03  1:45:28 2847
Temperature limited to 1.000000e+00 in 11 cells during the last 11 iterations

 time step reduced in 1 cells due to excessive temperature change

 temperature limited to 1.000000e+00 in 1 cells on zone 2 
   154  1.3850e+00  1.5830e-01 -1.9172e-02  1.0236e+03  1:43:19 2846

 temperature limited to 1.000000e+00 in 1 cells on zone 2 

  iter          cd          cl          cm       t_max     time/iter
   155  1.3839e+00  1.5820e-01 -1.9133e-02  1.0239e+03  1:51:04 2845

 temperature limited to 1.000000e+00 in 1 cells on zone 2 
   156  1.3829e+00  1.5809e-01 -1.9094e-02  1.0242e+03  1:47:47 2844

 temperature limited to 1.000000e+00 in 1 cells on zone 2 
   157  1.3819e+00  1.5799e-01 -1.9055e-02  1.0245e+03  1:54:38 2843

 temperature limited to 1.000000e+00 in 1 cells on zone 2 
   158  1.3809e+00  1.5790e-01 -1.9016e-02  1.0248e+03  1:50:37 2842

 temperature limited to 1.000000e+00 in 1 cells on zone 2 
   159  1.3799e+00  1.5780e-01 -1.8977e-02  1.0251e+03  1:47:24 2841

 temperature limited to 1.000000e+00 in 1 cells on zone 2 
   160  1.3789e+00  1.5770e-01 -1.8938e-02  1.0254e+03  1:44:50 2840

 temperature limited to 1.000000e+00 in 1 cells on zone 2 
   161  1.3779e+00  1.5761e-01 -1.8900e-02  1.0257e+03  1:52:13 2839

 temperature limited to 1.000000e+00 in 1 cells on zone 2 
   162  1.3769e+00  1.5751e-01 -1.8861e-02  1.0260e+03  1:48:40 2838

 temperature limited to 1.000000e+00 in 1 cells on zone 2 
   163  1.3759e+00  1.5742e-01 -1.8821e-02  1.0262e+03  1:45:49 2837

 temperature limited to 1.000000e+00 in 1 cells on zone 2 
   164  1.3749e+00  1.5733e-01 -1.8783e-02  1.0265e+03  1:52:59 2836
Temperature limited to 1.000000e+00 in 11 cells during the last 11 iterations

 temperature limited to 1.000000e+00 in 1 cells on zone 2 
   165  1.3740e+00  1.5724e-01 -1.8744e-02  1.0267e+03  1:49:15 2835

 temperature limited to 1.000000e+00 in 1 cells on zone 2 

  iter          cd          cl          cm       t_max     time/iter
   166  1.3730e+00  1.5715e-01 -1.8705e-02  1.0269e+03  1:46:16 2834

 temperature limited to 1.000000e+00 in 1 cells on zone 2 
   167  1.3721e+00  1.5706e-01 -1.8666e-02  1.0271e+03  1:43:52 2833

 temperature limited to 1.000000e+00 in 1 cells on zone 2 
   168  1.3711e+00  1.5698e-01 -1.8627e-02  1.0273e+03  1:41:57 2832

 temperature limited to 1.000000e+00 in 1 cells on zone 2 
   169  1.3702e+00  1.5689e-01 -1.8589e-02  1.0275e+03  1:49:50 2831

 temperature limited to 1.000000e+00 in 1 cells on zone 2 
   170  1.3693e+00  1.5680e-01 -1.8550e-02  1.0276e+03  1:46:42 2830

 temperature limited to 1.000000e+00 in 1 cells on zone 2 
   171  1.3683e+00  1.5672e-01 -1.8512e-02  1.0278e+03  1:44:12 2829

 temperature limited to 1.000000e+00 in 1 cells on zone 2 
   172  1.3674e+00  1.5664e-01 -1.8474e-02  1.0279e+03  1:42:11 2828

 temperature limited to 1.000000e+00 in 1 cells on zone 2 
   173  1.3665e+00  1.5656e-01 -1.8436e-02  1.0280e+03  1:40:34 2827

 time step reduced in 1 cells due to excessive temperature change

 temperature limited to 1.000000e+00 in 1 cells on zone 2 
   174  1.3656e+00  1.5648e-01 -1.8397e-02  1.0281e+03  1:48:41 2826

 time step reduced in 1 cells due to excessive temperature change

 temperature limited to 1.000000e+00 in 1 cells on zone 2 
   175  1.3648e+00  1.5640e-01 -1.8360e-02  1.0282e+03  1:45:45 2825
Temperature limited to 1.000000e+00 in 11 cells during the last 11 iterations

 time step reduced in 1 cells due to excessive temperature change

 temperature limited to 1.000000e+00 in 1 cells on zone 2 
   176  1.3639e+00  1.5632e-01 -1.8322e-02  1.0282e+03  1:43:24 2824

 time step reduced in 1 cells due to excessive temperature change

 temperature limited to 1.000000e+00 in 1 cells on zone 2 

  iter          cd          cl          cm       t_max     time/iter
   177  1.3630e+00  1.5624e-01 -1.8285e-02  1.0283e+03  1:41:30 2823

 time step reduced in 1 cells due to excessive temperature change

 temperature limited to 1.000000e+00 in 1 cells on zone 2 
   178  1.3621e+00  1.5616e-01 -1.8247e-02  1.0283e+03  1:49:24 2822

 time step reduced in 1 cells due to excessive temperature change
   179  1.3613e+00  1.5609e-01 -1.8209e-02  1.0283e+03  1:46:18 2821
   180  1.3604e+00  1.5601e-01 -1.8172e-02  1.0283e+03  1:43:48 2820
   181  1.3596e+00  1.5594e-01 -1.8135e-02  1.0282e+03  1:41:48 2819
   182  1.3587e+00  1.5586e-01 -1.8099e-02  1.0281e+03  1:40:12 2818
   183  1.3579e+00  1.5579e-01 -1.8062e-02  1.0281e+03  1:48:18 2817
   184  1.3571e+00  1.5571e-01 -1.8026e-02  1.0280e+03  1:45:23 2816
   185  1.3563e+00  1.5564e-01 -1.7990e-02  1.0278e+03  1:43:03 2815
   186  1.3554e+00  1.5557e-01 -1.7954e-02  1.0277e+03  1:41:10 2814
Temperature limited to 1.000000e+00 in 2 cells during the last 11 iterations
   187  1.3546e+00  1.5550e-01 -1.7918e-02  1.0276e+03  1:49:02 2813

  iter          cd          cl          cm       t_max     time/iter
   188  1.3538e+00  1.5543e-01 -1.7883e-02  1.0276e+03  1:45:57 2812
   189  1.3530e+00  1.5536e-01 -1.7848e-02  1.0277e+03  1:43:28 2811
   190  1.3522e+00  1.5529e-01 -1.7813e-02  1.0277e+03  1:41:29 2810
   191  1.3515e+00  1.5522e-01 -1.7779e-02  1.0277e+03  1:39:53 2809
   192  1.3507e+00  1.5515e-01 -1.7745e-02  1.0276e+03  1:47:57 2808
   193  1.3499e+00  1.5509e-01 -1.7711e-02  1.0275e+03  1:45:03 2807
   194  1.3491e+00  1.5502e-01 -1.7677e-02  1.0274e+03  1:42:43 2806
   195  1.3484e+00  1.5495e-01 -1.7644e-02  1.0272e+03  1:40:50 2805
   196  1.3476e+00  1.5488e-01 -1.7611e-02  1.0270e+03  1:48:41 2804
   197  1.3469e+00  1.5482e-01 -1.7579e-02  1.0268e+03  1:45:36 2803
   198  1.3461e+00  1.5475e-01 -1.7546e-02  1.0266e+03  1:43:08 2802

  iter          cd          cl          cm       t_max     time/iter
   199  1.3454e+00  1.5469e-01 -1.7515e-02  1.0263e+03  1:41:09 2801
   200  1.3447e+00  1.5462e-01 -1.7483e-02  1.0260e+03  1:39:33 2800
   201  1.3439e+00  1.5456e-01 -1.7452e-02  1.0256e+03  1:47:36 2799
   202  1.3432e+00  1.5449e-01 -1.7421e-02  1.0253e+03  1:44:43 2798
   203  1.3425e+00  1.5443e-01 -1.7391e-02  1.0249e+03  1:42:23 2797
   204  1.3418e+00  1.5436e-01 -1.7361e-02  1.0245e+03  1:40:31 2796
   205  1.3411e+00  1.5430e-01 -1.7331e-02  1.0241e+03  1:48:20 2795
   206  1.3404e+00  1.5423e-01 -1.7303e-02  1.0236e+03  1:45:16 2794
   207  1.3397e+00  1.5417e-01 -1.7274e-02  1.0232e+03  1:42:48 2793
   208  1.3390e+00  1.5411e-01 -1.7246e-02  1.0227e+03  1:40:49 2792
   209  1.3383e+00  1.5404e-01 -1.7218e-02  1.0222e+03  1:39:14 2791

  iter          cd          cl          cm       t_max     time/iter
   210  1.3376e+00  1.5398e-01 -1.7191e-02  1.0217e+03  1:47:16 2790
   211  1.3369e+00  1.5392e-01 -1.7164e-02  1.0211e+03  1:44:22 2789
   212  1.3362e+00  1.5385e-01 -1.7138e-02  1.0206e+03  1:42:03 2788
   213  1.3356e+00  1.5379e-01 -1.7112e-02  1.0200e+03  1:40:12 2787
   214  1.3349e+00  1.5373e-01 -1.7087e-02  1.0194e+03  1:38:42 2786
   215  1.3343e+00  1.5366e-01 -1.7062e-02  1.0188e+03  1:46:47 2785
   216  1.3336e+00  1.5360e-01 -1.7037e-02  1.0182e+03  1:43:57 2784
   217  1.3330e+00  1.5354e-01 -1.7013e-02  1.0176e+03  1:41:41 2783
   218  1.3323e+00  1.5348e-01 -1.6990e-02  1.0170e+03  1:49:08 2782
   219  1.3317e+00  1.5342e-01 -1.6968e-02  1.0164e+03  1:45:49 2781
   220  1.3311e+00  1.5336e-01 -1.6945e-02  1.0157e+03  1:43:10 2780

  iter          cd          cl          cm       t_max     time/iter
   221  1.3304e+00  1.5329e-01 -1.6924e-02  1.0151e+03  1:41:01 2779
   222  1.3298e+00  1.5323e-01 -1.6902e-02  1.0144e+03  1:39:19 2778
   223  1.3292e+00  1.5317e-01 -1.6882e-02  1.0181e+03  1:47:11 2777
   224  1.3286e+00  1.5311e-01 -1.6862e-02  1.0224e+03  1:44:14 2776
   225  1.3280e+00  1.5305e-01 -1.6843e-02  1.0266e+03  1:41:51 2775
   226  1.3274e+00  1.5299e-01 -1.6824e-02  1.0309e+03  1:39:57 2774
   227  1.3268e+00  1.5293e-01 -1.6806e-02  1.0353e+03  1:38:25 2773
   228  1.3263e+00  1.5287e-01 -1.6788e-02  1.0397e+03  1:46:25 2772
   229  1.3257e+00  1.5281e-01 -1.6771e-02  1.0441e+03  1:43:35 2771
   230  1.3252e+00  1.5276e-01 -1.6755e-02  1.0485e+03  1:41:18 2770
   231  1.3246e+00  1.5270e-01 -1.6739e-02  1.0530e+03  1:39:28 2769

  iter          cd          cl          cm       t_max     time/iter
   232  1.3241e+00  1.5264e-01 -1.6724e-02  1.0576e+03  1:38:00 2768
   233  1.3235e+00  1.5259e-01 -1.6710e-02  1.0621e+03  1:46:03 2767
   234  1.3230e+00  1.5253e-01 -1.6697e-02  1.0667e+03  1:43:15 2766
   235  1.3225e+00  1.5247e-01 -1.6683e-02  1.0713e+03  1:41:00 2765
   236  1.3220e+00  1.5242e-01 -1.6672e-02  1.0760e+03  1:39:12 2764
   237  1.3215e+00  1.5237e-01 -1.6660e-02  1.0806e+03  1:46:58 2763
   238  1.3210e+00  1.5231e-01 -1.6649e-02  1.0853e+03  1:43:57 2762
   239  1.3206e+00  1.5226e-01 -1.6639e-02  1.0901e+03  1:41:32 2761
   240  1.3201e+00  1.5221e-01 -1.6630e-02  1.0948e+03  1:39:36 2760
   241  1.3197e+00  1.5216e-01 -1.6622e-02  1.0996e+03  1:38:03 2759
   242  1.3192e+00  1.5211e-01 -1.6615e-02  1.1044e+03  1:45:59 2758

  iter          cd          cl          cm       t_max     time/iter
   243  1.3188e+00  1.5206e-01 -1.6608e-02  1.1092e+03  1:43:08 2757
   244  1.3184e+00  1.5201e-01 -1.6602e-02  1.1140e+03  1:40:51 2756
   245  1.3180e+00  1.5197e-01 -1.6598e-02  1.1188e+03  1:39:01 2755
   246  1.3177e+00  1.5192e-01 -1.6595e-02  1.1236e+03  1:46:44 2754
   247  1.3173e+00  1.5188e-01 -1.6592e-02  1.1284e+03  1:43:42 2753
   248  1.3170e+00  1.5184e-01 -1.6591e-02  1.1333e+03  1:41:17 2752
   249  1.3167e+00  1.5180e-01 -1.6590e-02  1.1381e+03  1:39:20 2751
   250  1.3164e+00  1.5176e-01 -1.6591e-02  1.1429e+03  1:37:46 2750
   251  1.3161e+00  1.5173e-01 -1.6593e-02  1.1478e+03  1:45:41 2749
   252  1.3158e+00  1.5169e-01 -1.6596e-02  1.1526e+03  1:42:50 2748
   253  1.3156e+00  1.5166e-01 -1.6600e-02  1.1574e+03  1:40:33 2747

  iter          cd          cl          cm       t_max     time/iter
   254  1.3153e+00  1.5163e-01 -1.6605e-02  1.1622e+03  1:38:43 2746
   255  1.3151e+00  1.5160e-01 -1.6611e-02  1.1671e+03  1:46:24 2745
   256  1.3150e+00  1.5157e-01 -1.6619e-02  1.1718e+03  1:43:23 2744
   257  1.3148e+00  1.5155e-01 -1.6628e-02  1.1766e+03  1:40:58 2743
   258  1.3147e+00  1.5153e-01 -1.6638e-02  1.1814e+03  1:39:01 2742
   259  1.3146e+00  1.5151e-01 -1.6650e-02  1.1861e+03  1:46:36 2741
   260  1.3145e+00  1.5149e-01 -1.6663e-02  1.1909e+03  1:43:31 2740
   261  1.3144e+00  1.5148e-01 -1.6677e-02  1.1956e+03  1:41:02 2739
   262  1.3144e+00  1.5147e-01 -1.6693e-02  1.2003e+03  1:39:03 2738
   263  1.3144e+00  1.5146e-01 -1.6710e-02  1.2050e+03  1:46:35 2737
   264  1.3144e+00  1.5146e-01 -1.6728e-02  1.2096e+03  1:43:29 2736

  iter          cd          cl          cm       t_max     time/iter
   265  1.3145e+00  1.5145e-01 -1.6748e-02  1.2143e+03  1:40:59 2735
   266  1.3145e+00  1.5145e-01 -1.6770e-02  1.2189e+03  1:38:59 2734
   267  1.3146e+00  1.5146e-01 -1.6792e-02  1.2235e+03  1:37:23 2733
   268  1.3148e+00  1.5147e-01 -1.6816e-02  1.2280e+03  1:45:12 2732
   269  1.3149e+00  1.5148e-01 -1.6842e-02  1.2326e+03  1:42:20 2731
   270  1.3151e+00  1.5149e-01 -1.6870e-02  1.2371e+03  1:40:02 2730
   271  1.3153e+00  1.5151e-01 -1.6898e-02  1.2416e+03  1:38:12 2729
   272  1.3156e+00  1.5153e-01 -1.6928e-02  1.2460e+03  1:36:43 2728
   273  1.3159e+00  1.5155e-01 -1.6960e-02  1.2504e+03  1:44:37 2727
   274  1.3162e+00  1.5158e-01 -1.6993e-02  1.2548e+03  1:41:50 2726
   275  1.3165e+00  1.5161e-01 -1.7027e-02  1.2591e+03  1:48:41 2725

  iter          cd          cl          cm       t_max     time/iter
   276  1.3169e+00  1.5165e-01 -1.7063e-02  1.2634e+03  1:45:05 2724
   277  1.3173e+00  1.5169e-01 -1.7100e-02  1.2677e+03  1:42:11 2723
   278  1.3178e+00  1.5173e-01 -1.7139e-02  1.2719e+03  1:39:52 2722
   279  1.3182e+00  1.5178e-01 -1.7179e-02  1.2761e+03  1:47:04 2721
   280  1.3187e+00  1.5183e-01 -1.7221e-02  1.2803e+03  1:43:46 2720
   281  1.3193e+00  1.5189e-01 -1.7263e-02  1.2844e+03  1:41:06 2719

 time step reduced in 1 cells due to excessive temperature change
   282  1.3198e+00  1.5195e-01 -1.7307e-02  1.2885e+03  1:38:58 2718

 time step reduced in 1 cells due to excessive temperature change
   283  1.3205e+00  1.5201e-01 -1.7353e-02  1.2926e+03  1:37:16 2717
   284  1.3211e+00  1.5208e-01 -1.7400e-02  1.2966e+03  1:44:56 2716
   285  1.3218e+00  1.5215e-01 -1.7448e-02  1.3005e+03  1:42:01 2715
   286  1.3225e+00  1.5223e-01 -1.7498e-02  1.3045e+03  1:39:41 2714

  iter          cd          cl          cm       t_max     time/iter
   287  1.3232e+00  1.5231e-01 -1.7549e-02  1.3084e+03  1:37:48 2713
   288  1.3240e+00  1.5240e-01 -1.7601e-02  1.3122e+03  1:45:20 2712
   289  1.3248e+00  1.5248e-01 -1.7654e-02  1.3160e+03  1:42:19 2711
   290  1.3256e+00  1.5258e-01 -1.7709e-02  1.3198e+03  1:39:53 2710
   291  1.3264e+00  1.5268e-01 -1.7765e-02  1.3235e+03  1:37:56 2709
   292  1.3273e+00  1.5278e-01 -1.7821e-02  1.3272e+03  1:36:22 2708
   293  1.3283e+00  1.5289e-01 -1.7878e-02  1.3309e+03  1:44:08 2707
   294  1.3292e+00  1.5300e-01 -1.7937e-02  1.3345e+03  1:41:19 2706
   295  1.3302e+00  1.5311e-01 -1.7997e-02  1.3381e+03  1:39:04 2705
   296  1.3312e+00  1.5323e-01 -1.8057e-02  1.3416e+03  1:37:15 2704
   297  1.3323e+00  1.5336e-01 -1.8119e-02  1.3452e+03  1:44:48 2703

  iter          cd          cl          cm       t_max     time/iter
   298  1.3334e+00  1.5348e-01 -1.8181e-02  1.3486e+03  1:41:49 2702
   299  1.3345e+00  1.5361e-01 -1.8243e-02  1.3521e+03  1:39:26 2701
   300  1.3356e+00  1.5375e-01 -1.8306e-02  1.3555e+03  1:37:31 2700
   301  1.3368e+00  1.5389e-01 -1.8370e-02  1.3588e+03  1:35:59 2699
   302  1.3380e+00  1.5404e-01 -1.8434e-02  1.3622e+03  1:43:44 2698
   303  1.3392e+00  1.5419e-01 -1.8499e-02  1.3655e+03  1:40:56 2697
   304  1.3405e+00  1.5434e-01 -1.8564e-02  1.3687e+03  1:38:42 2696
   305  1.3417e+00  1.5450e-01 -1.8628e-02  1.3720e+03  1:36:53 2695
   306  1.3430e+00  1.5466e-01 -1.8693e-02  1.3752e+03  1:44:25 2694
   307  1.3444e+00  1.5482e-01 -1.8758e-02  1.3783e+03  1:41:28 2693
   308  1.3457e+00  1.5499e-01 -1.8823e-02  1.3815e+03  1:39:05 2692

  iter          cd          cl          cm       t_max     time/iter
   309  1.3471e+00  1.5516e-01 -1.8888e-02  1.3846e+03  1:37:11 2691
   310  1.3485e+00  1.5534e-01 -1.8952e-02  1.3876e+03  1:44:37 2690
   311  1.3499e+00  1.5552e-01 -1.9016e-02  1.3907e+03  1:41:35 2689
   312  1.3513e+00  1.5570e-01 -1.9080e-02  1.3937e+03  1:39:10 2688
   313  1.3528e+00  1.5589e-01 -1.9143e-02  1.3967e+03  1:37:13 2687
   314  1.3543e+00  1.5608e-01 -1.9205e-02  1.3996e+03  1:44:36 2686
   315  1.3558e+00  1.5627e-01 -1.9266e-02  1.4025e+03  1:41:33 2685
   316  1.3573e+00  1.5647e-01 -1.9327e-02  1.4054e+03  1:39:06 2684
   317  1.3588e+00  1.5667e-01 -1.9387e-02  1.4083e+03  1:46:05 2683
   318  1.3604e+00  1.5687e-01 -1.9445e-02  1.4111e+03  1:42:43 2682
   319  1.3620e+00  1.5708e-01 -1.9503e-02  1.4139e+03  1:31:05 2681

  iter          cd          cl          cm       t_max     time/iter
   320  1.3635e+00  1.5729e-01 -1.9559e-02  1.4167e+03  1:30:42 2680
   321  1.3651e+00  1.5750e-01 -1.9614e-02  1.4194e+03  1:30:24 2679
   322  1.3668e+00  1.5772e-01 -1.9668e-02  1.4221e+03  1:30:08 2678

 time step reduced in 1 cells due to excessive temperature change
   323  1.3684e+00  1.5794e-01 -1.9720e-02  1.4248e+03  1:21:01 2677

 time step reduced in 1 cells due to excessive temperature change
   324  1.3700e+00  1.5816e-01 -1.9771e-02  1.4275e+03  1:22:37 2676
   325  1.3717e+00  1.5838e-01 -1.9820e-02  1.4301e+03  1:23:54 2675
   326  1.3733e+00  1.5861e-01 -1.9867e-02  1.4327e+03  1:24:56 2674
   327  1.3750e+00  1.5884e-01 -1.9913e-02  1.4352e+03  1:16:50 2673
   328  1.3767e+00  1.5907e-01 -1.9957e-02  1.4377e+03  1:19:15 2672
   329  1.3784e+00  1.5931e-01 -1.9999e-02  1.4402e+03  1:21:11 2671
   330  1.3801e+00  1.5954e-01 -2.0038e-02  1.4427e+03  1:22:43 2670

  iter          cd          cl          cm       t_max     time/iter
   331  1.3818e+00  1.5978e-01 -2.0077e-02  1.4475e+03  1:23:57 2669
   332  1.3835e+00  1.6002e-01 -2.0112e-02  1.4533e+03  1:16:02 2668
   333  1.3852e+00  1.6027e-01 -2.0146e-02  1.4590e+03  1:18:35 2667
   334  1.3870e+00  1.6051e-01 -2.0177e-02  1.4647e+03  1:20:37 2666
   335  1.3887e+00  1.6076e-01 -2.0206e-02  1.4704e+03  1:22:14 2665
   336  1.3904e+00  1.6101e-01 -2.0233e-02  1.4760e+03  1:23:31 2664
   337  1.3922e+00  1.6126e-01 -2.0257e-02  1.4815e+03  1:24:33 2663
   338  1.3939e+00  1.6151e-01 -2.0279e-02  1.4870e+03  1:16:29 2662
   339  1.3957e+00  1.6176e-01 -2.0298e-02  1.4925e+03  1:18:54 2661
   340  1.3974e+00  1.6202e-01 -2.0315e-02  1.4978e+03  1:20:50 2660
   341  1.3992e+00  1.6227e-01 -2.0329e-02  1.5032e+03  1:22:22 2659

  iter          cd          cl          cm       t_max     time/iter
   342  1.4010e+00  1.6253e-01 -2.0341e-02  1.5085e+03  1:14:44 2658
   343  1.4027e+00  1.6279e-01 -2.0350e-02  1.5137e+03  1:17:29 2657
   344  1.4045e+00  1.6305e-01 -2.0356e-02  1.5189e+03  1:19:40 2656
   345  1.4062e+00  1.6331e-01 -2.0360e-02  1.5240e+03  1:21:24 2655
   346  1.4080e+00  1.6357e-01 -2.0361e-02  1.5291e+03  1:22:48 2654
   347  1.4097e+00  1.6383e-01 -2.0359e-02  1.5382e+03  1:15:03 2653
   348  1.4115e+00  1.6410e-01 -2.0354e-02  1.5497e+03  1:17:42 2652
   349  1.4132e+00  1.6436e-01 -2.0347e-02  1.5611e+03  1:19:49 2651
   350  1.4150e+00  1.6463e-01 -2.0337e-02  1.5726e+03  1:21:29 2650
   351  1.4167e+00  1.6489e-01 -2.0323e-02  1.5840e+03  1:22:50 2649
   352  1.4185e+00  1.6516e-01 -2.0307e-02  1.5953e+03  1:15:04 2648

  iter          cd          cl          cm       t_max     time/iter
   353  1.4202e+00  1.6542e-01 -2.0288e-02  1.6066e+03  1:17:41 2647
   354  1.4219e+00  1.6569e-01 -2.0266e-02  1.6179e+03  1:19:45 2646
   355  1.4237e+00  1.6596e-01 -2.0241e-02  1.6291e+03  1:21:25 2645
   356  1.4254e+00  1.6623e-01 -2.0213e-02  1.6402e+03  1:22:44 2644
   357  1.4271e+00  1.6649e-01 -2.0182e-02  1.6513e+03  1:14:58 2643
   358  1.4288e+00  1.6676e-01 -2.0149e-02  1.6622e+03  1:17:34 2642
   359  1.4305e+00  1.6703e-01 -2.0112e-02  1.6731e+03  1:19:38 2641
   360  1.4322e+00  1.6730e-01 -2.0072e-02  1.6839e+03  1:21:17 2640
   361  1.4343e+00  1.6764e-01 -2.0017e-02  1.6977e+03  1:22:36 2639
   362  1.4364e+00  1.6798e-01 -1.9956e-02  1.7113e+03  1:14:51 2638
   363  1.4385e+00  1.6831e-01 -1.9890e-02  1.7248e+03  1:17:26 2637

  iter          cd          cl          cm       t_max     time/iter
   364  1.4406e+00  1.6865e-01 -1.9820e-02  1.7380e+03  1:19:30 2636
   365  1.4427e+00  1.6899e-01 -1.9745e-02  1.7510e+03  1:21:08 2635
   366  1.4447e+00  1.6932e-01 -1.9665e-02  1.7638e+03  1:22:27 2634
   367  1.4467e+00  1.6966e-01 -1.9582e-02  1.7764e+03  1:14:43 2633
   368  1.4488e+00  1.6999e-01 -1.9493e-02  1.7888e+03  1:17:18 2632
   369  1.4508e+00  1.7032e-01 -1.9400e-02  1.8009e+03  1:19:21 2631
   370  1.4527e+00  1.7066e-01 -1.9303e-02  1.8128e+03  1:20:59 2630
   371  1.4547e+00  1.7099e-01 -1.9202e-02  1.8245e+03  1:22:18 2629
   372  1.4566e+00  1.7131e-01 -1.9096e-02  1.8360e+03  1:23:20 2628
   373  1.4585e+00  1.7164e-01 -1.8986e-02  1.8472e+03  1:15:24 2627

 time step reduced in 1 cells due to excessive temperature change
   374  1.4604e+00  1.7197e-01 -1.8873e-02  1.8583e+03  1:17:48 2626

 time step reduced in 1 cells due to excessive temperature change

  iter          cd          cl          cm       t_max     time/iter
   375  1.4623e+00  1.7229e-01 -1.8755e-02  1.8691e+03  1:19:43 2625
   376  1.4642e+00  1.7261e-01 -1.8634e-02  1.8797e+03  1:21:15 2624
   377  1.4660e+00  1.7293e-01 -1.8508e-02  1.8901e+03  1:22:27 2623
   378  1.4678e+00  1.7325e-01 -1.8380e-02  1.9003e+03  1:14:41 2622
   379  1.4696e+00  1.7357e-01 -1.8247e-02  1.9103e+03  1:17:12 2621
   380  1.4714e+00  1.7388e-01 -1.8111e-02  1.9201e+03  1:19:12 2620
   381  1.4731e+00  1.7420e-01 -1.7972e-02  1.9297e+03  1:20:48 2619
   382  1.4749e+00  1.7451e-01 -1.7830e-02  1.9390e+03  1:22:04 2618
   383  1.4766e+00  1.7482e-01 -1.7685e-02  1.9483e+03  1:14:21 2617
   384  1.4782e+00  1.7512e-01 -1.7537e-02  1.9573e+03  1:16:54 2616
   385  1.4799e+00  1.7542e-01 -1.7385e-02  1.9661e+03  1:18:56 2615

  iter          cd          cl          cm       t_max     time/iter
   386  1.4815e+00  1.7573e-01 -1.7232e-02  1.9748e+03  1:20:33 2614
   387  1.4831e+00  1.7602e-01 -1.7075e-02  1.9833e+03  1:30:32 2613
   388  1.4847e+00  1.7632e-01 -1.6917e-02  1.9917e+03  1:47:14 2612
   389  1.4863e+00  1.7661e-01 -1.6756e-02  1.9998e+03  1:51:52 2611
   390  1.4878e+00  1.7690e-01 -1.6593e-02  2.0078e+03  2:12:57 2610
   391  1.4899e+00  1.7732e-01 -1.6352e-02  2.0195e+03  2:38:30 2609
   392  1.4920e+00  1.7772e-01 -1.6107e-02  2.0307e+03  2:41:32 2608
   393  1.4941e+00  1.7812e-01 -1.5859e-02  2.0416e+03  2:43:56 2607
   394  1.4960e+00  1.7852e-01 -1.5610e-02  2.0522e+03  3:03:13 2606
   395  1.4980e+00  1.7890e-01 -1.5357e-02  2.0625e+03  3:09:56 2605
   396  1.4999e+00  1.7928e-01 -1.5104e-02  2.0724e+03  3:15:17 2604

  iter          cd          cl          cm       t_max     time/iter
   397  1.5017e+00  1.7966e-01 -1.4849e-02  2.0820e+03  3:02:12 2603
   398  1.5035e+00  1.8003e-01 -1.4593e-02  2.0913e+03  2:51:43 2602
   399  1.5052e+00  1.8039e-01 -1.4337e-02  2.1003e+03  2:34:40 2601
   400  1.5068e+00  1.8074e-01 -1.4081e-02  2.1091e+03  2:29:41 2600
   401  1.5085e+00  1.8109e-01 -1.3826e-02  2.1175e+03  2:17:02 2599

 time step reduced in 1 cells due to excessive temperature change
   402  1.5100e+00  1.8143e-01 -1.3571e-02  2.1257e+03  2:15:34 2598

 time step reduced in 1 cells due to excessive temperature change
   403  1.5116e+00  1.8176e-01 -1.3318e-02  2.1336e+03  2:05:43 2597

 time step reduced in 1 cells due to excessive temperature change
   404  1.5130e+00  1.8208e-01 -1.3065e-02  2.1412e+03  1:57:51 2596

 time step reduced in 1 cells due to excessive temperature change
   405  1.5145e+00  1.8240e-01 -1.2815e-02  2.1486e+03  2:00:11 2595

 time step reduced in 1 cells due to excessive temperature change
   406  1.5158e+00  1.8272e-01 -1.2568e-02  2.1558e+03  1:53:24 2594

 time step reduced in 1 cells due to excessive temperature change
   407  1.5172e+00  1.8302e-01 -1.2322e-02  2.1627e+03  1:56:37 2593

 time step reduced in 1 cells due to excessive temperature change

  iter          cd          cl          cm       t_max     time/iter
   408  1.5184e+00  1.8332e-01 -1.2079e-02  2.1693e+03  1:59:11 2592

 time step reduced in 1 cells due to excessive temperature change
   409  1.5197e+00  1.8361e-01 -1.1838e-02  2.1757e+03  1:52:35 2591

 time step reduced in 1 cells due to excessive temperature change
   410  1.5209e+00  1.8389e-01 -1.1602e-02  2.1819e+03  1:55:56 2590

 time step reduced in 1 cells due to excessive temperature change
   411  1.5220e+00  1.8417e-01 -1.1369e-02  2.1878e+03  1:49:58 2589

 time step reduced in 1 cells due to excessive temperature change
   412  1.5231e+00  1.8443e-01 -1.1140e-02  2.1935e+03  1:53:49 2588
   413  1.5241e+00  1.8469e-01 -1.0914e-02  2.1990e+03  1:48:16 2587
   414  1.5252e+00  1.8495e-01 -1.0693e-02  2.2041e+03  1:43:49 2586
   415  1.5261e+00  1.8520e-01 -1.0476e-02  2.2091e+03  1:48:52 2585
   416  1.5271e+00  1.8543e-01 -1.0263e-02  2.2138e+03  1:44:18 2584
   417  1.5279e+00  1.8567e-01 -1.0055e-02  2.2183e+03  1:49:14 2583
   418  1.5288e+00  1.8589e-01 -9.8520e-03  2.2225e+03  1:44:34 2582

  iter          cd          cl          cm       t_max     time/iter
   419  1.5296e+00  1.8611e-01 -9.6538e-03  2.2265e+03  1:49:26 2581
   420  1.5304e+00  1.8632e-01 -9.4603e-03  2.2302e+03  1:44:43 2580

 time step reduced in 2 cells due to excessive temperature change
   421  1.5314e+00  1.8662e-01 -9.1810e-03  2.2355e+03  1:49:32 2579

 time step reduced in 3 cells due to excessive temperature change
   422  1.5324e+00  1.8691e-01 -8.9136e-03  2.2403e+03  1:44:46 2578

 time step reduced in 3 cells due to excessive temperature change
   423  1.5333e+00  1.8718e-01 -8.6585e-03  2.2448e+03  1:49:33 2577

 time step reduced in 2 cells due to excessive temperature change
   424  1.5342e+00  1.8743e-01 -8.4152e-03  2.2488e+03  1:44:47 2576

 time step reduced in 2 cells due to excessive temperature change
   425  1.5349e+00  1.8767e-01 -8.1834e-03  2.2525e+03  1:49:33 2575

 time step reduced in 3 cells due to excessive temperature change

 turbulent viscosity limited to viscosity ratio of 1.000000e+05 in 1 cells 
   426  1.5356e+00  1.8790e-01 -7.9630e-03  2.2558e+03  1:44:46 2574

 time step reduced in 3 cells due to excessive temperature change

 turbulent viscosity limited to viscosity ratio of 1.000000e+05 in 1 cells 
   427  1.5363e+00  1.8811e-01 -7.7534e-03  2.2587e+03  1:49:30 2573

 time step reduced in 3 cells due to excessive temperature change

 turbulent viscosity limited to viscosity ratio of 1.000000e+05 in 1 cells 
   428  1.5369e+00  1.8832e-01 -7.5543e-03  2.2613e+03  1:44:43 2572

 time step reduced in 2 cells due to excessive temperature change
   429  1.5374e+00  1.8851e-01 -7.3656e-03  2.2636e+03  1:40:53 2571

 time step reduced in 3 cells due to excessive temperature change

  iter          cd          cl          cm       t_max     time/iter
   430  1.5379e+00  1.8868e-01 -7.1871e-03  2.2656e+03  1:46:22 2570

 time step reduced in 2 cells due to excessive temperature change

 turbulent viscosity limited to viscosity ratio of 1.000000e+05 in 1 cells 
   431  1.5383e+00  1.8885e-01 -7.0177e-03  2.2673e+03  1:50:45 2569

 time step reduced in 2 cells due to excessive temperature change
   432  1.5387e+00  1.8901e-01 -6.8576e-03  2.2687e+03  1:45:41 2568

 time step reduced in 3 cells due to excessive temperature change
   433  1.5391e+00  1.8916e-01 -6.7061e-03  2.2698e+03  1:50:11 2567

 time step reduced in 1 cells due to excessive temperature change
   434  1.5394e+00  1.8929e-01 -6.5629e-03  2.2706e+03  1:53:47 2566

 time step reduced in 1 cells due to excessive temperature change
   435  1.5397e+00  1.8942e-01 -6.4274e-03  2.2712e+03  1:48:05 2565

 time step reduced in 2 cells due to excessive temperature change
   436  1.5400e+00  1.8955e-01 -6.2991e-03  2.2715e+03  1:43:32 2564

 time step reduced in 2 cells due to excessive temperature change

 turbulent viscosity limited to viscosity ratio of 1.000000e+05 in 1 cells 
   437  1.5402e+00  1.8966e-01 -6.1782e-03  2.2716e+03  1:48:25 2563

 time step reduced in 2 cells due to excessive temperature change

 turbulent viscosity limited to viscosity ratio of 1.000000e+05 in 1 cells 
   438  1.5404e+00  1.8977e-01 -6.0632e-03  2.2714e+03  1:52:19 2562

 time step reduced in 2 cells due to excessive temperature change
   439  1.5406e+00  1.8987e-01 -5.9544e-03  2.2710e+03  1:46:54 2561

 time step reduced in 3 cells due to excessive temperature change
   440  1.5407e+00  1.8996e-01 -5.8513e-03  2.2704e+03  1:51:05 2560

 time step reduced in 3 cells due to excessive temperature change

 turbulent viscosity limited to viscosity ratio of 1.000000e+05 in 1 cells 

  iter          cd          cl          cm       t_max     time/iter
   441  1.5409e+00  1.9005e-01 -5.7534e-03  2.2695e+03  1:45:54 2559

 time step reduced in 3 cells due to excessive temperature change

 turbulent viscosity limited to viscosity ratio of 1.000000e+05 in 1 cells 
   442  1.5410e+00  1.9013e-01 -5.6594e-03  2.2684e+03  1:50:16 2558

 time step reduced in 4 cells due to excessive temperature change

 turbulent viscosity limited to viscosity ratio of 1.000000e+05 in 1 cells 
   443  1.5412e+00  1.9021e-01 -5.5701e-03  2.2671e+03  1:45:13 2557

 time step reduced in 3 cells due to excessive temperature change

 turbulent viscosity limited to viscosity ratio of 1.000000e+05 in 1 cells 
   444  1.5413e+00  1.9029e-01 -5.4854e-03  2.2656e+03  1:41:11 2556

 time step reduced in 4 cells due to excessive temperature change
   445  1.5414e+00  1.9036e-01 -5.4036e-03  2.2638e+03  1:46:28 2555

 time step reduced in 4 cells due to excessive temperature change
   446  1.5415e+00  1.9043e-01 -5.3250e-03  2.2619e+03  1:42:10 2554

 time step reduced in 5 cells due to excessive temperature change

 turbulent viscosity limited to viscosity ratio of 1.000000e+05 in 1 cells 
   447  1.5416e+00  1.9050e-01 -5.2495e-03  2.2598e+03  1:38:43 2553

 time step reduced in 7 cells due to excessive temperature change

 turbulent viscosity limited to viscosity ratio of 1.000000e+05 in 1 cells 
   448  1.5417e+00  1.9056e-01 -5.1766e-03  2.2574e+03  1:44:28 2552

 time step reduced in 6 cells due to excessive temperature change
   449  1.5419e+00  1.9062e-01 -5.1060e-03  2.2549e+03  1:40:33 2551

 time step reduced in 5 cells due to excessive temperature change
   450  1.5420e+00  1.9068e-01 -5.0372e-03  2.2522e+03  1:37:24 2550
Temperature limited to 1.000000e+00 in 9 cells during the last 11 iterations

 time step reduced in 13 cells due to excessive temperature change
   451  1.5422e+00  1.9077e-01 -4.9322e-03  2.2473e+03  1:43:23 2549

 time step reduced in 15 cells due to excessive temperature change

 turbulent viscosity limited to viscosity ratio of 1.000000e+05 in 1 cells 

  iter          cd          cl          cm       t_max     time/iter
   452  1.5424e+00  1.9086e-01 -4.8312e-03  2.2419e+03  1:39:40 2548

 time step reduced in 14 cells due to excessive temperature change

 turbulent viscosity limited to viscosity ratio of 1.000000e+05 in 1 cells 
   453  1.5427e+00  1.9095e-01 -4.7324e-03  2.2362e+03  1:45:10 2547

 time step reduced in 18 cells due to excessive temperature change

 turbulent viscosity limited to viscosity ratio of 1.000000e+05 in 1 cells 
   454  1.5430e+00  1.9104e-01 -4.6357e-03  2.2301e+03  1:49:34 2546

 time step reduced in 21 cells due to excessive temperature change

 turbulent viscosity limited to viscosity ratio of 1.000000e+05 in 3 cells 
   455  1.5433e+00  1.9114e-01 -4.5411e-03  2.2237e+03  1:44:35 2545

 time step reduced in 21 cells due to excessive temperature change

 turbulent viscosity limited to viscosity ratio of 1.000000e+05 in 2 cells 
   456  1.5436e+00  1.9123e-01 -4.4480e-03  2.2169e+03  1:49:04 2544

 time step reduced in 21 cells due to excessive temperature change

 turbulent viscosity limited to viscosity ratio of 1.000000e+05 in 3 cells 
   457  1.5440e+00  1.9132e-01 -4.3565e-03  2.2098e+03  1:52:39 2543

 time step reduced in 27 cells due to excessive temperature change

 turbulent viscosity limited to viscosity ratio of 1.000000e+05 in 3 cells 
   458  1.5444e+00  1.9142e-01 -4.2665e-03  2.2024e+03  1:55:30 2542

 time step reduced in 27 cells due to excessive temperature change

 turbulent viscosity limited to viscosity ratio of 1.000000e+05 in 3 cells 
   459  1.5449e+00  1.9152e-01 -4.1777e-03  2.1947e+03  1:49:19 2541

 time step reduced in 29 cells due to excessive temperature change

 turbulent viscosity limited to viscosity ratio of 1.000000e+05 in 2 cells 
   460  1.5454e+00  1.9162e-01 -4.0910e-03  2.1867e+03  1:52:49 2540

 time step reduced in 31 cells due to excessive temperature change

 turbulent viscosity limited to viscosity ratio of 1.000000e+05 in 3 cells 
   461  1.5459e+00  1.9173e-01 -4.0060e-03  2.1784e+03  1:55:36 2539
Temperature limited to 1.000000e+00 in 13 cells during the last 11 iterations
Absolute pressure limited to 1.000000e+00 in 1 cells during the last 11 iterations

 time step reduced in 30 cells due to excessive temperature change

 turbulent viscosity limited to viscosity ratio of 1.000000e+05 in 6 cells 
   462  1.5465e+00  1.9183e-01 -3.9232e-03  2.1699e+03  1:49:22 2538

 time step reduced in 32 cells due to excessive temperature change

 turbulent viscosity limited to viscosity ratio of 1.000000e+05 in 5 cells 

  iter          cd          cl          cm       t_max     time/iter
   463  1.5470e+00  1.9194e-01 -3.8428e-03  2.1612e+03  1:44:22 2537

 time step reduced in 31 cells due to excessive temperature change

 turbulent viscosity limited to viscosity ratio of 1.000000e+05 in 6 cells 
   464  1.5477e+00  1.9205e-01 -3.7647e-03  2.1520e+03  1:48:50 2536

 time step reduced in 27 cells due to excessive temperature change

 turbulent viscosity limited to viscosity ratio of 1.000000e+05 in 7 cells 
   465  1.5483e+00  1.9216e-01 -3.6907e-03  2.1425e+03  1:43:56 2535

 time step reduced in 32 cells due to excessive temperature change

 turbulent viscosity limited to viscosity ratio of 1.000000e+05 in 6 cells 
   466  1.5490e+00  1.9227e-01 -3.6188e-03  2.1327e+03  1:40:00 2534

 time step reduced in 36 cells due to excessive temperature change

 turbulent viscosity limited to viscosity ratio of 1.000000e+05 in 8 cells 
   467  1.5497e+00  1.9239e-01 -3.5518e-03  2.1227e+03  1:45:18 2533

 time step reduced in 36 cells due to excessive temperature change

 turbulent viscosity limited to viscosity ratio of 1.000000e+05 in 7 cells 
   468  1.5504e+00  1.9250e-01 -3.4879e-03  2.1125e+03  1:41:05 2532

 time step reduced in 40 cells due to excessive temperature change

 turbulent viscosity limited to viscosity ratio of 1.000000e+05 in 8 cells 
   469  1.5512e+00  1.9261e-01 -3.4291e-03  2.1023e+03  1:37:43 2531

 time step reduced in 34 cells due to excessive temperature change

 turbulent viscosity limited to viscosity ratio of 1.000000e+05 in 5 cells 
   470  1.5520e+00  1.9273e-01 -3.3745e-03  2.0922e+03  1:43:26 2530

 time step reduced in 31 cells due to excessive temperature change

 turbulent viscosity limited to viscosity ratio of 1.000000e+05 in 6 cells 
   471  1.5528e+00  1.9284e-01 -3.3252e-03  2.0821e+03  1:39:35 2529

 time step reduced in 36 cells due to excessive temperature change

 turbulent viscosity limited to viscosity ratio of 1.000000e+05 in 5 cells 
   472  1.5536e+00  1.9296e-01 -3.2812e-03  2.0721e+03  1:36:29 2528
Temperature limited to 1.000000e+00 in 23 cells during the last 11 iterations

 time step reduced in 35 cells due to excessive temperature change

 turbulent viscosity limited to viscosity ratio of 1.000000e+05 in 7 cells 
   473  1.5545e+00  1.9307e-01 -3.2440e-03  2.0622e+03  1:34:00 2527

 time step reduced in 41 cells due to excessive temperature change

 turbulent viscosity limited to viscosity ratio of 1.000000e+05 in 7 cells 

  iter          cd          cl          cm       t_max     time/iter
   474  1.5554e+00  1.9318e-01 -3.2132e-03  2.0525e+03  1:32:01 2526

 time step reduced in 43 cells due to excessive temperature change

 turbulent viscosity limited to viscosity ratio of 1.000000e+05 in 9 cells 
   475  1.5563e+00  1.9329e-01 -3.1887e-03  2.0430e+03  1:38:50 2525

 time step reduced in 46 cells due to excessive temperature change

 turbulent viscosity limited to viscosity ratio of 1.000000e+05 in 10 cells 
   476  1.5572e+00  1.9340e-01 -3.1718e-03  2.0336e+03  1:35:52 2524

 time step reduced in 45 cells due to excessive temperature change

 turbulent viscosity limited to viscosity ratio of 1.000000e+05 in 8 cells 
   477  1.5582e+00  1.9351e-01 -3.1627e-03  2.0244e+03  1:33:29 2523

 time step reduced in 42 cells due to excessive temperature change

 turbulent viscosity limited to viscosity ratio of 1.000000e+05 in 8 cells 
   478  1.5592e+00  1.9361e-01 -3.1613e-03  2.0154e+03  1:31:34 2522

 time step reduced in 34 cells due to excessive temperature change

 turbulent viscosity limited to viscosity ratio of 1.000000e+05 in 7 cells 
   479  1.5602e+00  1.9372e-01 -3.1678e-03  2.0064e+03  1:38:26 2521

 time step reduced in 32 cells due to excessive temperature change

 turbulent viscosity limited to viscosity ratio of 1.000000e+05 in 8 cells 
   480  1.5612e+00  1.9382e-01 -3.1834e-03  1.9977e+03  1:35:31 2520

 time step reduced in 57 cells due to excessive temperature change

 turbulent viscosity limited to viscosity ratio of 1.000000e+05 in 8 cells 
   481  1.5627e+00  1.9395e-01 -3.2225e-03  1.9862e+03  1:41:34 2519

 time step reduced in 67 cells due to excessive temperature change

 turbulent viscosity limited to viscosity ratio of 1.000000e+05 in 11 cells 
   482  1.5643e+00  1.9407e-01 -3.2772e-03  1.9750e+03  1:38:01 2518

 time step reduced in 60 cells due to excessive temperature change

 turbulent viscosity limited to viscosity ratio of 1.000000e+05 in 10 cells 
   483  1.5658e+00  1.9420e-01 -3.3471e-03  1.9640e+03  1:35:10 2517
Temperature limited to 1.000000e+00 in 7 cells during the last 11 iterations

 time step reduced in 62 cells due to excessive temperature change

 turbulent viscosity limited to viscosity ratio of 1.000000e+05 in 14 cells 
   484  1.5675e+00  1.9432e-01 -3.4317e-03  1.9531e+03  1:41:15 2516

 time step reduced in 70 cells due to excessive temperature change

 turbulent viscosity limited to viscosity ratio of 1.000000e+05 in 13 cells 

  iter          cd          cl          cm       t_max     time/iter
   485  1.5692e+00  1.9443e-01 -3.5311e-03  1.9424e+03  1:37:44 2515

 time step reduced in 70 cells due to excessive temperature change

 turbulent viscosity limited to viscosity ratio of 1.000000e+05 in 12 cells 
   486  1.5709e+00  1.9454e-01 -3.6449e-03  1.9319e+03  1:34:55 2514

 time step reduced in 78 cells due to excessive temperature change

 turbulent viscosity limited to viscosity ratio of 1.000000e+05 in 10 cells 
   487  1.5727e+00  1.9465e-01 -3.7718e-03  1.9215e+03  1:32:40 2513

 time step reduced in 74 cells due to excessive temperature change

 turbulent viscosity limited to viscosity ratio of 1.000000e+05 in 15 cells 
   488  1.5746e+00  1.9476e-01 -3.9121e-03  1.9113e+03  1:39:13 2512

 time step reduced in 69 cells due to excessive temperature change

 turbulent viscosity limited to viscosity ratio of 1.000000e+05 in 15 cells 
   489  1.5764e+00  1.9486e-01 -4.0638e-03  1.9013e+03  1:44:27 2511

 time step reduced in 62 cells due to excessive temperature change

 turbulent viscosity limited to viscosity ratio of 1.000000e+05 in 19 cells 
   490  1.5784e+00  1.9496e-01 -4.2267e-03  1.8914e+03  1:48:38 2510

 time step reduced in 63 cells due to excessive temperature change

 turbulent viscosity limited to viscosity ratio of 1.000000e+05 in 21 cells 
   491  1.5803e+00  1.9507e-01 -4.3994e-03  1.8818e+03  1:43:36 2509

 time step reduced in 51 cells due to excessive temperature change

 turbulent viscosity limited to viscosity ratio of 1.000000e+05 in 24 cells 
   492  1.5823e+00  1.9517e-01 -4.5812e-03  1.8723e+03  1:39:34 2508

 time step reduced in 50 cells due to excessive temperature change

 turbulent viscosity limited to viscosity ratio of 1.000000e+05 in 26 cells 
   493  1.5843e+00  1.9527e-01 -4.7701e-03  1.8631e+03  1:44:41 2507

 time step reduced in 47 cells due to excessive temperature change

 turbulent viscosity limited to viscosity ratio of 1.000000e+05 in 30 cells 
   494  1.5864e+00  1.9537e-01 -4.9658e-03  1.8541e+03  2:05:29 2506
Temperature limited to 1.000000e+00 in 6 cells during the last 11 iterations
Absolute pressure limited to 1.000000e+00 in 1 cells during the last 11 iterations

 time step reduced in 46 cells due to excessive temperature change

 turbulent viscosity limited to viscosity ratio of 1.000000e+05 in 28 cells 
   495  1.5884e+00  1.9547e-01 -5.1654e-03  1.8453e+03  2:05:24 2505

 time step reduced in 37 cells due to excessive temperature change

 turbulent viscosity limited to viscosity ratio of 1.000000e+05 in 30 cells 

  iter          cd          cl          cm       t_max     time/iter
   496  1.5905e+00  1.9557e-01 -5.3676e-03  1.8368e+03  1:56:58 2504

 time step reduced in 38 cells due to excessive temperature change

 turbulent viscosity limited to viscosity ratio of 1.000000e+05 in 27 cells 
   497  1.5925e+00  1.9568e-01 -5.5713e-03  1.8286e+03  2:06:55 2503

 time step reduced in 41 cells due to excessive temperature change

 turbulent viscosity limited to viscosity ratio of 1.000000e+05 in 34 cells 
   498  1.5945e+00  1.9579e-01 -5.7748e-03  1.8206e+03  2:06:31 2502

 time step reduced in 39 cells due to excessive temperature change

 turbulent viscosity limited to viscosity ratio of 1.000000e+05 in 35 cells 
   499  1.5965e+00  1.9590e-01 -5.9770e-03  1.8129e+03  2:06:11 2501

 time step reduced in 28 cells due to excessive temperature change

 turbulent viscosity limited to viscosity ratio of 1.000000e+05 in 37 cells 
   500  1.5985e+00  1.9602e-01 -6.1774e-03  1.8055e+03  2:14:14 2500

 time step reduced in 29 cells due to excessive temperature change

 turbulent viscosity limited to viscosity ratio of 1.000000e+05 in 39 cells 
   501  1.6004e+00  1.9613e-01 -6.3745e-03  1.7984e+03  2:20:40 2499

 time step reduced in 27 cells due to excessive temperature change

 turbulent viscosity limited to viscosity ratio of 1.000000e+05 in 41 cells 
   502  1.6023e+00  1.9626e-01 -6.5675e-03  1.7915e+03  2:34:07 2498

 time step reduced in 25 cells due to excessive temperature change

 turbulent viscosity limited to viscosity ratio of 1.000000e+05 in 41 cells 
   503  1.6041e+00  1.9638e-01 -6.7550e-03  1.7849e+03  2:36:32 2497

 time step reduced in 24 cells due to excessive temperature change

 turbulent viscosity limited to viscosity ratio of 1.000000e+05 in 41 cells 
   504  1.6059e+00  1.9651e-01 -6.9362e-03  1.7787e+03  2:30:09 2496

 time step reduced in 27 cells due to excessive temperature change

 turbulent viscosity limited to viscosity ratio of 1.000000e+05 in 39 cells 
   505  1.6076e+00  1.9665e-01 -7.1112e-03  1.7726e+03  2:25:01 2495
Temperature limited to 1.000000e+00 in 17 cells during the last 11 iterations
Absolute pressure limited to 1.000000e+00 in 1 cells during the last 11 iterations

 time step reduced in 28 cells due to excessive temperature change

 turbulent viscosity limited to viscosity ratio of 1.000000e+05 in 42 cells 
   506  1.6093e+00  1.9679e-01 -7.2796e-03  1.7668e+03  2:20:54 2494

 time step reduced in 26 cells due to excessive temperature change

 turbulent viscosity limited to viscosity ratio of 1.000000e+05 in 42 cells 

  iter          cd          cl          cm       t_max     time/iter
   507  1.6109e+00  1.9693e-01 -7.4428e-03  1.7613e+03  2:17:37 2493

 time step reduced in 28 cells due to excessive temperature change

 turbulent viscosity limited to viscosity ratio of 1.000000e+05 in 50 cells 
   508  1.6125e+00  1.9707e-01 -7.6010e-03  1.7560e+03  2:06:39 2492

 time step reduced in 26 cells due to excessive temperature change

 turbulent viscosity limited to viscosity ratio of 1.000000e+05 in 50 cells 
   509  1.6141e+00  1.9722e-01 -7.7536e-03  1.7508e+03  2:06:12 2491

 time step reduced in 21 cells due to excessive temperature change

 turbulent viscosity limited to viscosity ratio of 1.000000e+05 in 50 cells 
   510  1.6157e+00  1.9737e-01 -7.9016e-03  1.7459e+03  2:05:49 2490

 time step reduced in 24 cells due to excessive temperature change

 turbulent viscosity limited to viscosity ratio of 1.000000e+05 in 40 cells 
   511  1.6176e+00  1.9756e-01 -8.0823e-03  1.7398e+03  2:05:30 2489

 time step reduced in 20 cells due to excessive temperature change

 turbulent viscosity limited to viscosity ratio of 1.000000e+05 in 48 cells 
   512  1.6195e+00  1.9776e-01 -8.2562e-03  1.7339e+03  1:56:57 2488

 time step reduced in 19 cells due to excessive temperature change

 turbulent viscosity limited to viscosity ratio of 1.000000e+05 in 45 cells 
   513  1.6213e+00  1.9796e-01 -8.4221e-03  1.7281e+03  1:50:06 2487

 time step reduced in 22 cells due to excessive temperature change

 turbulent viscosity limited to viscosity ratio of 1.000000e+05 in 48 cells 
   514  1.6230e+00  1.9815e-01 -8.5809e-03  1.7225e+03  1:52:54 2486

 time step reduced in 16 cells due to excessive temperature change

 turbulent viscosity limited to viscosity ratio of 1.000000e+05 in 45 cells 
   515  1.6247e+00  1.9834e-01 -8.7339e-03  1.7169e+03  1:46:51 2485

 time step reduced in 15 cells due to excessive temperature change

 turbulent viscosity limited to viscosity ratio of 1.000000e+05 in 44 cells 
   516  1.6263e+00  1.9853e-01 -8.8801e-03  1.7114e+03  1:42:01 2484
Temperature limited to 1.000000e+00 in 15 cells during the last 11 iterations
Absolute pressure limited to 1.000000e+00 in 3 cells during the last 11 iterations

 time step reduced in 16 cells due to excessive temperature change

 turbulent viscosity limited to viscosity ratio of 1.000000e+05 in 44 cells 
   517  1.6279e+00  1.9871e-01 -9.0199e-03  1.7059e+03  1:46:24 2483

 time step reduced in 14 cells due to excessive temperature change

 turbulent viscosity limited to viscosity ratio of 1.000000e+05 in 50 cells 

  iter          cd          cl          cm       t_max     time/iter
   518  1.6293e+00  1.9889e-01 -9.1537e-03  1.7004e+03  1:49:55 2482

 time step reduced in 15 cells due to excessive temperature change

 turbulent viscosity limited to viscosity ratio of 1.000000e+05 in 42 cells 
   519  1.6307e+00  1.9906e-01 -9.2816e-03  1.6948e+03  1:52:42 2481

 time step reduced in 17 cells due to excessive temperature change

 turbulent viscosity limited to viscosity ratio of 1.000000e+05 in 42 cells 
   520  1.6320e+00  1.9923e-01 -9.4031e-03  1.6892e+03  1:46:40 2480

 time step reduced in 13 cells due to excessive temperature change

 turbulent viscosity limited to viscosity ratio of 1.000000e+05 in 43 cells 
   521  1.6332e+00  1.9938e-01 -9.5188e-03  1.6836e+03  1:50:05 2479

 time step reduced in 12 cells due to excessive temperature change

 turbulent viscosity limited to viscosity ratio of 1.000000e+05 in 44 cells 
   522  1.6343e+00  1.9953e-01 -9.6283e-03  1.6779e+03  2:01:04 2478

 time step reduced in 9 cells due to excessive temperature change

 turbulent viscosity limited to viscosity ratio of 1.000000e+05 in 44 cells 
   523  1.6353e+00  1.9966e-01 -9.7319e-03  1.6721e+03  1:53:20 2477

 time step reduced in 5 cells due to excessive temperature change

 turbulent viscosity limited to viscosity ratio of 1.000000e+05 in 38 cells 
   524  1.6362e+00  1.9979e-01 -9.8301e-03  1.6662e+03  1:55:23 2476

 time step reduced in 6 cells due to excessive temperature change

 turbulent viscosity limited to viscosity ratio of 1.000000e+05 in 41 cells 
   525  1.6370e+00  1.9990e-01 -9.9226e-03  1.6603e+03  1:57:01 2475

 time step reduced in 5 cells due to excessive temperature change

 turbulent viscosity limited to viscosity ratio of 1.000000e+05 in 39 cells 
   526  1.6377e+00  2.0001e-01 -1.0010e-02  1.6543e+03  1:58:19 2474

 time step reduced in 2 cells due to excessive temperature change

 turbulent viscosity limited to viscosity ratio of 1.000000e+05 in 43 cells 
   527  1.6383e+00  2.0010e-01 -1.0092e-02  1.6482e+03  1:51:06 2473
Temperature limited to 1.000000e+00 in 8 cells during the last 11 iterations

 time step reduced in 3 cells due to excessive temperature change

 turbulent viscosity limited to viscosity ratio of 1.000000e+05 in 43 cells 
   528  1.6389e+00  2.0019e-01 -1.0170e-02  1.6420e+03  1:53:34 2472

 time step reduced in 5 cells due to excessive temperature change

 turbulent viscosity limited to viscosity ratio of 1.000000e+05 in 49 cells 

  iter          cd          cl          cm       t_max     time/iter
   529  1.6393e+00  2.0026e-01 -1.0243e-02  1.6358e+03  1:47:17 2471

 time step reduced in 3 cells due to excessive temperature change

 turbulent viscosity limited to viscosity ratio of 1.000000e+05 in 43 cells 
   530  1.6397e+00  2.0032e-01 -1.0312e-02  1.6295e+03  1:50:30 2470

 time step reduced in 5 cells due to excessive temperature change

 turbulent viscosity limited to viscosity ratio of 1.000000e+05 in 47 cells 
   531  1.6399e+00  2.0037e-01 -1.0377e-02  1.6231e+03  1:44:49 2469

 time step reduced in 4 cells due to excessive temperature change

 turbulent viscosity limited to viscosity ratio of 1.000000e+05 in 52 cells 
   532  1.6401e+00  2.0041e-01 -1.0438e-02  1.6166e+03  1:48:30 2468

 time step reduced in 4 cells due to excessive temperature change

 turbulent viscosity limited to viscosity ratio of 1.000000e+05 in 52 cells 
   533  1.6402e+00  2.0044e-01 -1.0495e-02  1.6101e+03  1:51:26 2467

 time step reduced in 5 cells due to excessive temperature change

 turbulent viscosity limited to viscosity ratio of 1.000000e+05 in 45 cells 
   534  1.6403e+00  2.0046e-01 -1.0549e-02  1.6035e+03  1:53:46 2466

 time step reduced in 6 cells due to excessive temperature change

 turbulent viscosity limited to viscosity ratio of 1.000000e+05 in 48 cells 
   535  1.6402e+00  2.0047e-01 -1.0600e-02  1.5969e+03  1:55:38 2465

 time step reduced in 2 cells due to excessive temperature change

 turbulent viscosity limited to viscosity ratio of 1.000000e+05 in 53 cells 
   536  1.6401e+00  2.0047e-01 -1.0646e-02  1.5902e+03  2:21:45 2464

 time step reduced in 3 cells due to excessive temperature change

 turbulent viscosity limited to viscosity ratio of 1.000000e+05 in 53 cells 
   537  1.6399e+00  2.0046e-01 -1.0690e-02  1.5834e+03  2:17:59 2463

 time step reduced in 2 cells due to excessive temperature change

 turbulent viscosity limited to viscosity ratio of 1.000000e+05 in 55 cells 
   538  1.6396e+00  2.0044e-01 -1.0731e-02  1.5766e+03  2:23:10 2462
Temperature limited to 1.000000e+00 in 10 cells during the last 11 iterations

 time step reduced in 1 cells due to excessive temperature change

 turbulent viscosity limited to viscosity ratio of 1.000000e+05 in 49 cells 
   539  1.6393e+00  2.0041e-01 -1.0768e-02  1.5698e+03  2:43:42 2461

 time step reduced in 2 cells due to excessive temperature change

 turbulent viscosity limited to viscosity ratio of 1.000000e+05 in 49 cells 

  iter          cd          cl          cm       t_max     time/iter
   540  1.6389e+00  2.0037e-01 -1.0802e-02  1.5629e+03  2:51:55 2460

 time step reduced in 1 cells due to excessive temperature change

 turbulent viscosity limited to viscosity ratio of 1.000000e+05 in 48 cells 
   541  1.6384e+00  2.0032e-01 -1.0834e-02  1.5558e+03  2:42:04 2459

 time step reduced in 2 cells due to excessive temperature change

 turbulent viscosity limited to viscosity ratio of 1.000000e+05 in 42 cells 
   542  1.6379e+00  2.0027e-01 -1.0862e-02  1.5486e+03  2:25:59 2458

 time step reduced in 2 cells due to excessive temperature change

 turbulent viscosity limited to viscosity ratio of 1.000000e+05 in 43 cells 
   543  1.6373e+00  2.0020e-01 -1.0888e-02  1.5414e+03  2:13:07 2457

 time step reduced in 1 cells due to excessive temperature change

 turbulent viscosity limited to viscosity ratio of 1.000000e+05 in 48 cells 
   544  1.6366e+00  2.0013e-01 -1.0910e-02  1.5343e+03  2:11:01 2456

 time step reduced in 1 cells due to excessive temperature change

 turbulent viscosity limited to viscosity ratio of 1.000000e+05 in 44 cells 
   545  1.6359e+00  2.0005e-01 -1.0928e-02  1.5271e+03  2:01:08 2455

 turbulent viscosity limited to viscosity ratio of 1.000000e+05 in 37 cells 
   546  1.6351e+00  1.9997e-01 -1.0943e-02  1.5199e+03  2:01:24 2454

 turbulent viscosity limited to viscosity ratio of 1.000000e+05 in 38 cells 
   547  1.6343e+00  1.9988e-01 -1.0955e-02  1.5128e+03  2:01:37 2453

 turbulent viscosity limited to viscosity ratio of 1.000000e+05 in 34 cells 
   548  1.6334e+00  1.9978e-01 -1.0963e-02  1.5057e+03  2:01:46 2452

 turbulent viscosity limited to viscosity ratio of 1.000000e+05 in 36 cells 
   549  1.6325e+00  1.9967e-01 -1.0969e-02  1.4986e+03  1:53:43 2451

 turbulent viscosity limited to viscosity ratio of 1.000000e+05 in 30 cells 
   550  1.6315e+00  1.9957e-01 -1.0972e-02  1.4915e+03  1:55:26 2450

 turbulent viscosity limited to viscosity ratio of 1.000000e+05 in 34 cells 

  iter          cd          cl          cm       t_max     time/iter
   551  1.6305e+00  1.9945e-01 -1.0971e-02  1.4845e+03  1:56:48 2449

 turbulent viscosity limited to viscosity ratio of 1.000000e+05 in 36 cells 
   552  1.6295e+00  1.9933e-01 -1.0968e-02  1.4775e+03  1:57:53 2448

 turbulent viscosity limited to viscosity ratio of 1.000000e+05 in 39 cells 
   553  1.6284e+00  1.9921e-01 -1.0962e-02  1.4705e+03  1:50:35 2447

 turbulent viscosity limited to viscosity ratio of 1.000000e+05 in 37 cells 
   554  1.6273e+00  1.9908e-01 -1.0954e-02  1.4635e+03  1:52:53 2446

 turbulent viscosity limited to viscosity ratio of 1.000000e+05 in 34 cells 
   555  1.6261e+00  1.9895e-01 -1.0943e-02  1.4567e+03  1:46:34 2445

 turbulent viscosity limited to viscosity ratio of 1.000000e+05 in 35 cells 
   556  1.6249e+00  1.9881e-01 -1.0929e-02  1.4498e+03  1:41:31 2444

 turbulent viscosity limited to viscosity ratio of 1.000000e+05 in 38 cells 
   557  1.6237e+00  1.9868e-01 -1.0913e-02  1.4430e+03  1:37:28 2443

 turbulent viscosity limited to viscosity ratio of 1.000000e+05 in 38 cells 
   558  1.6225e+00  1.9853e-01 -1.0895e-02  1.4362e+03  1:42:22 2442

 turbulent viscosity limited to viscosity ratio of 1.000000e+05 in 31 cells 
   559  1.6212e+00  1.9839e-01 -1.0875e-02  1.4294e+03  1:38:08 2441

 turbulent viscosity limited to viscosity ratio of 1.000000e+05 in 32 cells 
   560  1.6199e+00  1.9824e-01 -1.0852e-02  1.4227e+03  1:42:52 2440

 turbulent viscosity limited to viscosity ratio of 1.000000e+05 in 33 cells 
   561  1.6186e+00  1.9809e-01 -1.0828e-02  1.4159e+03  1:38:31 2439

 turbulent viscosity limited to viscosity ratio of 1.000000e+05 in 35 cells 

  iter          cd          cl          cm       t_max     time/iter
   562  1.6173e+00  1.9793e-01 -1.0801e-02  1.4092e+03  1:43:10 2438

 turbulent viscosity limited to viscosity ratio of 1.000000e+05 in 36 cells 
   563  1.6159e+00  1.9778e-01 -1.0772e-02  1.4025e+03  1:38:45 2437

 turbulent viscosity limited to viscosity ratio of 1.000000e+05 in 35 cells 
   564  1.6145e+00  1.9762e-01 -1.0742e-02  1.3957e+03  1:43:19 2436

 turbulent viscosity limited to viscosity ratio of 1.000000e+05 in 35 cells 
   565  1.6132e+00  1.9746e-01 -1.0709e-02  1.3890e+03  1:38:52 2435

 turbulent viscosity limited to viscosity ratio of 1.000000e+05 in 34 cells 
   566  1.6118e+00  1.9730e-01 -1.0675e-02  1.3822e+03  1:43:24 2434

 turbulent viscosity limited to viscosity ratio of 1.000000e+05 in 41 cells 
   567  1.6104e+00  1.9713e-01 -1.0640e-02  1.3753e+03  1:38:54 2433

 turbulent viscosity limited to viscosity ratio of 1.000000e+05 in 38 cells 
   568  1.6090e+00  1.9697e-01 -1.0603e-02  1.3684e+03  1:43:25 2432

 turbulent viscosity limited to viscosity ratio of 1.000000e+05 in 32 cells 
   569  1.6076e+00  1.9680e-01 -1.0564e-02  1.3614e+03  1:38:54 2431

 turbulent viscosity limited to viscosity ratio of 1.000000e+05 in 30 cells 
   570  1.6061e+00  1.9663e-01 -1.0524e-02  1.3543e+03  1:35:17 2430

 turbulent viscosity limited to viscosity ratio of 1.000000e+05 in 32 cells 
   571  1.6047e+00  1.9646e-01 -1.0482e-02  1.3471e+03  1:32:24 2429

 turbulent viscosity limited to viscosity ratio of 1.000000e+05 in 31 cells 
   572  1.6033e+00  1.9629e-01 -1.0440e-02  1.3398e+03  1:38:10 2428

 turbulent viscosity limited to viscosity ratio of 1.000000e+05 in 31 cells 

  iter          cd          cl          cm       t_max     time/iter
   573  1.6018e+00  1.9611e-01 -1.0397e-02  1.3324e+03  1:34:41 2427

 turbulent viscosity limited to viscosity ratio of 1.000000e+05 in 30 cells 
   574  1.6004e+00  1.9594e-01 -1.0352e-02  1.3249e+03  1:39:58 2426

 turbulent viscosity limited to viscosity ratio of 1.000000e+05 in 30 cells 
   575  1.5990e+00  1.9576e-01 -1.0307e-02  1.3173e+03  1:36:07 2425

 turbulent viscosity limited to viscosity ratio of 1.000000e+05 in 26 cells 
   576  1.5975e+00  1.9558e-01 -1.0262e-02  1.3096e+03  1:41:06 2424

 turbulent viscosity limited to viscosity ratio of 1.000000e+05 in 25 cells 
   577  1.5961e+00  1.9540e-01 -1.0216e-02  1.3020e+03  1:37:00 2423

 turbulent viscosity limited to viscosity ratio of 1.000000e+05 in 34 cells 
   578  1.5946e+00  1.9522e-01 -1.0170e-02  1.2943e+03  1:33:43 2422

 turbulent viscosity limited to viscosity ratio of 1.000000e+05 in 40 cells 
   579  1.5932e+00  1.9503e-01 -1.0124e-02  1.2865e+03  1:39:09 2421

 turbulent viscosity limited to viscosity ratio of 1.000000e+05 in 49 cells 
   580  1.5917e+00  1.9484e-01 -1.0079e-02  1.2788e+03  1:35:25 2420

 turbulent viscosity limited to viscosity ratio of 1.000000e+05 in 44 cells 
   581  1.5903e+00  1.9465e-01 -1.0034e-02  1.2710e+03  1:32:26 2419

 turbulent viscosity limited to viscosity ratio of 1.000000e+05 in 42 cells 
   582  1.5888e+00  1.9446e-01 -9.9897e-03  1.2632e+03  1:38:06 2418

 turbulent viscosity limited to viscosity ratio of 1.000000e+05 in 40 cells 
   583  1.5874e+00  1.9427e-01 -9.9471e-03  1.2554e+03  1:34:33 2417

 turbulent viscosity limited to viscosity ratio of 1.000000e+05 in 43 cells 

  iter          cd          cl          cm       t_max     time/iter
   584  1.5860e+00  1.9407e-01 -9.9052e-03  1.2476e+03  1:31:43 2416

 turbulent viscosity limited to viscosity ratio of 1.000000e+05 in 46 cells 
   585  1.5845e+00  1.9387e-01 -9.8657e-03  1.2398e+03  1:29:27 2415

 turbulent viscosity limited to viscosity ratio of 1.000000e+05 in 42 cells 
   586  1.5831e+00  1.9367e-01 -9.8279e-03  1.2319e+03  1:35:40 2414

 turbulent viscosity limited to viscosity ratio of 1.000000e+05 in 37 cells 
   587  1.5817e+00  1.9347e-01 -9.7926e-03  1.2241e+03  1:32:35 2413

 turbulent viscosity limited to viscosity ratio of 1.000000e+05 in 51 cells 
   588  1.5803e+00  1.9327e-01 -9.7593e-03  1.2163e+03  1:30:07 2412

 turbulent viscosity limited to viscosity ratio of 1.000000e+05 in 46 cells 
   589  1.5789e+00  1.9306e-01 -9.7289e-03  1.2085e+03  1:28:08 2411

 turbulent viscosity limited to viscosity ratio of 1.000000e+05 in 44 cells 
   590  1.5775e+00  1.9285e-01 -9.7017e-03  1.2008e+03  1:34:35 2410

 turbulent viscosity limited to viscosity ratio of 1.000000e+05 in 41 cells 
   591  1.5761e+00  1.9264e-01 -9.6772e-03  1.1931e+03  1:31:42 2409

 turbulent viscosity limited to viscosity ratio of 1.000000e+05 in 40 cells 
   592  1.5748e+00  1.9243e-01 -9.6564e-03  1.1854e+03  1:29:23 2408

[...]

 turbulent viscosity limited to viscosity ratio of 1.000000e+05 in 48 cells 
  2884  1.5523e+00  1.9045e-01 -1.3171e-02  5.7145e+02  0:04:50  116

 turbulent viscosity limited to viscosity ratio of 1.000000e+05 in 52 cells 
  2885  1.5523e+00  1.9045e-01 -1.3171e-02  5.7143e+02  0:04:59  115

 turbulent viscosity limited to viscosity ratio of 1.000000e+05 in 53 cells 
  2886  1.5523e+00  1.9045e-01 -1.3171e-02  5.7140e+02  0:04:43  114

 turbulent viscosity limited to viscosity ratio of 1.000000e+05 in 52 cells 
  2887  1.5523e+00  1.9045e-01 -1.3172e-02  5.7137e+02  0:04:52  113

 turbulent viscosity limited to viscosity ratio of 1.000000e+05 in 56 cells 
  2888  1.5523e+00  1.9045e-01 -1.3172e-02  5.7134e+02  0:04:36  112

 turbulent viscosity limited to viscosity ratio of 1.000000e+05 in 56 cells 
  2889  1.5523e+00  1.9045e-01 -1.3172e-02  5.7131e+02  0:04:46  111

 turbulent viscosity limited to viscosity ratio of 1.000000e+05 in 57 cells 
  2890  1.5523e+00  1.9045e-01 -1.3172e-02  5.7127e+02  0:04:52  110

 turbulent viscosity limited to viscosity ratio of 1.000000e+05 in 52 cells 
  2891  1.5523e+00  1.9046e-01 -1.3172e-02  5.7123e+02  0:04:35  109

 turbulent viscosity limited to viscosity ratio of 1.000000e+05 in 50 cells 
  2892  1.5523e+00  1.9046e-01 -1.3172e-02  5.7119e+02  0:04:43  108

 turbulent viscosity limited to viscosity ratio of 1.000000e+05 in 46 cells 
  2893  1.5523e+00  1.9046e-01 -1.3173e-02  5.7115e+02  0:04:49  107

 turbulent viscosity limited to viscosity ratio of 1.000000e+05 in 55 cells 

  iter          cd          cl          cm       t_max     time/iter
  2894  1.5523e+00  1.9046e-01 -1.3173e-02  5.7111e+02  0:04:31  106

 turbulent viscosity limited to viscosity ratio of 1.000000e+05 in 51 cells 
  2895  1.5523e+00  1.9046e-01 -1.3173e-02  5.7106e+02  0:04:38  105

 turbulent viscosity limited to viscosity ratio of 1.000000e+05 in 53 cells 
  2896  1.5523e+00  1.9046e-01 -1.3173e-02  5.7101e+02  0:04:43  104

 turbulent viscosity limited to viscosity ratio of 1.000000e+05 in 52 cells 
  2897  1.5523e+00  1.9046e-01 -1.3173e-02  5.7095e+02  0:04:25  103

 turbulent viscosity limited to viscosity ratio of 1.000000e+05 in 48 cells 
  2898  1.5523e+00  1.9046e-01 -1.3173e-02  5.7090e+02  0:04:31  102

 turbulent viscosity limited to viscosity ratio of 1.000000e+05 in 44 cells 
  2899  1.5523e+00  1.9046e-01 -1.3173e-02  5.7084e+02  0:04:15  101

 turbulent viscosity limited to viscosity ratio of 1.000000e+05 in 45 cells 
  2900  1.5523e+00  1.9046e-01 -1.3173e-02  5.7078e+02  0:04:02  100

 turbulent viscosity limited to viscosity ratio of 1.000000e+05 in 49 cells 
  2901  1.5523e+00  1.9046e-01 -1.3173e-02  5.7072e+02  0:03:51   99

 turbulent viscosity limited to viscosity ratio of 1.000000e+05 in 55 cells 
  2902  1.5523e+00  1.9046e-01 -1.3173e-02  5.7065e+02  0:03:42   98

 turbulent viscosity limited to viscosity ratio of 1.000000e+05 in 47 cells 
  2903  1.5523e+00  1.9046e-01 -1.3173e-02  5.7058e+02  0:03:35   97

 turbulent viscosity limited to viscosity ratio of 1.000000e+05 in 53 cells 
  2904  1.5523e+00  1.9046e-01 -1.3174e-02  5.7051e+02  0:03:29   96

 turbulent viscosity limited to viscosity ratio of 1.000000e+05 in 54 cells 

  iter          cd          cl          cm       t_max     time/iter
  2905  1.5523e+00  1.9046e-01 -1.3174e-02  5.7044e+02  0:03:23   95

 turbulent viscosity limited to viscosity ratio of 1.000000e+05 in 53 cells 
  2906  1.5523e+00  1.9046e-01 -1.3174e-02  5.7037e+02  0:03:18   94

 turbulent viscosity limited to viscosity ratio of 1.000000e+05 in 55 cells 
  2907  1.5523e+00  1.9046e-01 -1.3174e-02  5.7029e+02  0:03:33   93

 turbulent viscosity limited to viscosity ratio of 1.000000e+05 in 54 cells 
  2908  1.5523e+00  1.9047e-01 -1.3174e-02  5.7021e+02  0:03:25   92

 turbulent viscosity limited to viscosity ratio of 1.000000e+05 in 52 cells 
  2909  1.5523e+00  1.9047e-01 -1.3174e-02  5.7013e+02  0:03:19   91

 turbulent viscosity limited to viscosity ratio of 1.000000e+05 in 47 cells 
  2910  1.5523e+00  1.9047e-01 -1.3174e-02  5.7004e+02  0:03:13   90

 turbulent viscosity limited to viscosity ratio of 1.000000e+05 in 45 cells 
  2911  1.5523e+00  1.9047e-01 -1.3174e-02  5.6996e+02  0:03:09   89

 turbulent viscosity limited to viscosity ratio of 1.000000e+05 in 51 cells 
  2912  1.5522e+00  1.9047e-01 -1.3175e-02  5.6987e+02  0:03:04   88

 turbulent viscosity limited to viscosity ratio of 1.000000e+05 in 61 cells 
  2913  1.5522e+00  1.9047e-01 -1.3175e-02  5.6978e+02  0:03:01   87

 turbulent viscosity limited to viscosity ratio of 1.000000e+05 in 56 cells 
  2914  1.5522e+00  1.9047e-01 -1.3175e-02  5.6969e+02  0:02:57   86

 turbulent viscosity limited to viscosity ratio of 1.000000e+05 in 56 cells 
  2915  1.5522e+00  1.9047e-01 -1.3175e-02  5.6959e+02  0:02:54   85

 turbulent viscosity limited to viscosity ratio of 1.000000e+05 in 58 cells 

  iter          cd          cl          cm       t_max     time/iter
  2916  1.5522e+00  1.9047e-01 -1.3175e-02  5.6949e+02  0:02:51   84

 turbulent viscosity limited to viscosity ratio of 1.000000e+05 in 49 cells 
  2917  1.5522e+00  1.9047e-01 -1.3175e-02  5.6939e+02  0:02:49   83

 turbulent viscosity limited to viscosity ratio of 1.000000e+05 in 47 cells 
  2918  1.5522e+00  1.9047e-01 -1.3175e-02  5.6929e+02  0:03:02   82

 turbulent viscosity limited to viscosity ratio of 1.000000e+05 in 50 cells 
  2919  1.5522e+00  1.9047e-01 -1.3176e-02  5.6919e+02  0:02:57   81

 turbulent viscosity limited to viscosity ratio of 1.000000e+05 in 57 cells 
  2920  1.5522e+00  1.9047e-01 -1.3176e-02  5.6908e+02  0:02:52   80

 turbulent viscosity limited to viscosity ratio of 1.000000e+05 in 52 cells 
  2921  1.5522e+00  1.9048e-01 -1.3176e-02  5.6897e+02  0:02:47   79

 turbulent viscosity limited to viscosity ratio of 1.000000e+05 in 53 cells 
  2922  1.5522e+00  1.9048e-01 -1.3176e-02  5.6886e+02  0:02:43   78

 turbulent viscosity limited to viscosity ratio of 1.000000e+05 in 55 cells 
  2923  1.5522e+00  1.9048e-01 -1.3177e-02  5.6875e+02  0:02:40   77

 turbulent viscosity limited to viscosity ratio of 1.000000e+05 in 61 cells 
  2924  1.5522e+00  1.9048e-01 -1.3177e-02  5.6864e+02  0:02:36   76

 turbulent viscosity limited to viscosity ratio of 1.000000e+05 in 62 cells 
  2925  1.5522e+00  1.9048e-01 -1.3177e-02  5.6853e+02  0:02:34   75

 turbulent viscosity limited to viscosity ratio of 1.000000e+05 in 54 cells 
  2926  1.5522e+00  1.9048e-01 -1.3177e-02  5.6841e+02  0:02:31   74

 turbulent viscosity limited to viscosity ratio of 1.000000e+05 in 57 cells 

  iter          cd          cl          cm       t_max     time/iter
  2927  1.5522e+00  1.9048e-01 -1.3178e-02  5.6829e+02  0:02:28   73

 turbulent viscosity limited to viscosity ratio of 1.000000e+05 in 52 cells 
  2928  1.5522e+00  1.9048e-01 -1.3178e-02  5.6817e+02  0:02:26   72

 turbulent viscosity limited to viscosity ratio of 1.000000e+05 in 50 cells 
  2929  1.5522e+00  1.9048e-01 -1.3178e-02  5.6805e+02  0:02:38   71

 turbulent viscosity limited to viscosity ratio of 1.000000e+05 in 51 cells 
  2930  1.5522e+00  1.9048e-01 -1.3178e-02  5.6793e+02  0:02:32   70

 turbulent viscosity limited to viscosity ratio of 1.000000e+05 in 54 cells 
  2931  1.5522e+00  1.9048e-01 -1.3179e-02  5.6780e+02  0:02:28   69

 turbulent viscosity limited to viscosity ratio of 1.000000e+05 in 57 cells 
  2932  1.5522e+00  1.9048e-01 -1.3179e-02  5.6768e+02  0:02:24   68

 turbulent viscosity limited to viscosity ratio of 1.000000e+05 in 52 cells 
  2933  1.5522e+00  1.9048e-01 -1.3180e-02  5.6755e+02  0:02:20   67

 turbulent viscosity limited to viscosity ratio of 1.000000e+05 in 60 cells 
  2934  1.5522e+00  1.9048e-01 -1.3180e-02  5.6742e+02  0:02:17   66

 turbulent viscosity limited to viscosity ratio of 1.000000e+05 in 59 cells 
  2935  1.5522e+00  1.9048e-01 -1.3180e-02  5.6732e+02  0:02:14   65

 turbulent viscosity limited to viscosity ratio of 1.000000e+05 in 58 cells 
  2936  1.5522e+00  1.9048e-01 -1.3181e-02  5.6733e+02  0:02:11   64

 turbulent viscosity limited to viscosity ratio of 1.000000e+05 in 61 cells 
  2937  1.5522e+00  1.9048e-01 -1.3182e-02  5.6734e+02  0:02:08   63

 turbulent viscosity limited to viscosity ratio of 1.000000e+05 in 63 cells 

  iter          cd          cl          cm       t_max     time/iter
  2938  1.5522e+00  1.9048e-01 -1.3182e-02  5.6734e+02  0:02:06   62

 turbulent viscosity limited to viscosity ratio of 1.000000e+05 in 59 cells 
  2939  1.5522e+00  1.9048e-01 -1.3183e-02  5.6734e+02  0:02:03   61

 turbulent viscosity limited to viscosity ratio of 1.000000e+05 in 62 cells 
  2940  1.5522e+00  1.9049e-01 -1.3183e-02  5.6734e+02  0:02:13   60

 turbulent viscosity limited to viscosity ratio of 1.000000e+05 in 54 cells 
  2941  1.5522e+00  1.9049e-01 -1.3184e-02  5.6733e+02  0:02:08   59

 turbulent viscosity limited to viscosity ratio of 1.000000e+05 in 53 cells 
  2942  1.5521e+00  1.9049e-01 -1.3185e-02  5.6732e+02  0:02:04   58

 turbulent viscosity limited to viscosity ratio of 1.000000e+05 in 53 cells 
  2943  1.5521e+00  1.9049e-01 -1.3185e-02  5.6731e+02  0:02:00   57

 turbulent viscosity limited to viscosity ratio of 1.000000e+05 in 58 cells 
  2944  1.5521e+00  1.9049e-01 -1.3186e-02  5.6729e+02  0:01:57   56

 turbulent viscosity limited to viscosity ratio of 1.000000e+05 in 58 cells 
  2945  1.5521e+00  1.9049e-01 -1.3187e-02  5.6727e+02  0:01:54   55

 turbulent viscosity limited to viscosity ratio of 1.000000e+05 in 57 cells 
  2946  1.5521e+00  1.9049e-01 -1.3188e-02  5.6725e+02  0:01:51   54

 turbulent viscosity limited to viscosity ratio of 1.000000e+05 in 56 cells 
  2947  1.5521e+00  1.9049e-01 -1.3188e-02  5.6722e+02  0:01:48   53

 turbulent viscosity limited to viscosity ratio of 1.000000e+05 in 55 cells 
  2948  1.5521e+00  1.9049e-01 -1.3189e-02  5.6720e+02  0:01:46   52

 turbulent viscosity limited to viscosity ratio of 1.000000e+05 in 55 cells 

  iter          cd          cl          cm       t_max     time/iter
  2949  1.5521e+00  1.9049e-01 -1.3190e-02  5.6717e+02  0:01:43   51

 turbulent viscosity limited to viscosity ratio of 1.000000e+05 in 57 cells 
  2950  1.5521e+00  1.9049e-01 -1.3191e-02  5.6713e+02  0:01:41   50

 turbulent viscosity limited to viscosity ratio of 1.000000e+05 in 59 cells 
  2951  1.5521e+00  1.9049e-01 -1.3192e-02  5.6710e+02  0:01:39   49

 turbulent viscosity limited to viscosity ratio of 1.000000e+05 in 58 cells 
  2952  1.5521e+00  1.9049e-01 -1.3193e-02  5.6706e+02  0:01:46   48

 turbulent viscosity limited to viscosity ratio of 1.000000e+05 in 57 cells 
  2953  1.5521e+00  1.9049e-01 -1.3194e-02  5.6702e+02  0:01:42   47

 turbulent viscosity limited to viscosity ratio of 1.000000e+05 in 57 cells 
  2954  1.5521e+00  1.9049e-01 -1.3195e-02  5.6698e+02  0:01:38   46

 turbulent viscosity limited to viscosity ratio of 1.000000e+05 in 59 cells 
  2955  1.5521e+00  1.9049e-01 -1.3196e-02  5.6693e+02  0:01:35   45

 turbulent viscosity limited to viscosity ratio of 1.000000e+05 in 54 cells 
  2956  1.5521e+00  1.9049e-01 -1.3197e-02  5.6688e+02  0:01:32   44

 turbulent viscosity limited to viscosity ratio of 1.000000e+05 in 48 cells 
  2957  1.5521e+00  1.9049e-01 -1.3198e-02  5.6683e+02  0:01:29   43

 turbulent viscosity limited to viscosity ratio of 1.000000e+05 in 51 cells 
  2958  1.5521e+00  1.9049e-01 -1.3199e-02  5.6678e+02  0:01:26   42

 turbulent viscosity limited to viscosity ratio of 1.000000e+05 in 51 cells 
  2959  1.5521e+00  1.9049e-01 -1.3201e-02  5.6672e+02  0:01:32   41

 turbulent viscosity limited to viscosity ratio of 1.000000e+05 in 58 cells 

  iter          cd          cl          cm       t_max     time/iter
  2960  1.5521e+00  1.9049e-01 -1.3202e-02  5.6667e+02  0:01:28   40

 turbulent viscosity limited to viscosity ratio of 1.000000e+05 in 54 cells 
  2961  1.5521e+00  1.9049e-01 -1.3203e-02  5.6661e+02  0:01:24   39

 turbulent viscosity limited to viscosity ratio of 1.000000e+05 in 53 cells 
  2962  1.5521e+00  1.9049e-01 -1.3204e-02  5.6654e+02  0:01:21   38

 turbulent viscosity limited to viscosity ratio of 1.000000e+05 in 52 cells 
  2963  1.5521e+00  1.9049e-01 -1.3206e-02  5.6648e+02  0:01:18   37

 turbulent viscosity limited to viscosity ratio of 1.000000e+05 in 53 cells 
  2964  1.5521e+00  1.9049e-01 -1.3207e-02  5.6641e+02  0:01:15   36

 turbulent viscosity limited to viscosity ratio of 1.000000e+05 in 59 cells 
  2965  1.5520e+00  1.9049e-01 -1.3208e-02  5.6634e+02  0:01:12   35

 turbulent viscosity limited to viscosity ratio of 1.000000e+05 in 63 cells 
  2966  1.5520e+00  1.9049e-01 -1.3210e-02  5.6627e+02  0:01:10   34

 turbulent viscosity limited to viscosity ratio of 1.000000e+05 in 59 cells 
  2967  1.5520e+00  1.9049e-01 -1.3211e-02  5.6620e+02  0:01:07   33

 turbulent viscosity limited to viscosity ratio of 1.000000e+05 in 51 cells 
  2968  1.5520e+00  1.9049e-01 -1.3213e-02  5.6613e+02  0:01:11   32

 turbulent viscosity limited to viscosity ratio of 1.000000e+05 in 44 cells 
  2969  1.5520e+00  1.9049e-01 -1.3214e-02  5.6605e+02  0:01:08   31

 turbulent viscosity limited to viscosity ratio of 1.000000e+05 in 42 cells 
  2970  1.5520e+00  1.9049e-01 -1.3216e-02  5.6597e+02  0:01:04   30

 turbulent viscosity limited to viscosity ratio of 1.000000e+05 in 49 cells 

  iter          cd          cl          cm       t_max     time/iter
  2971  1.5520e+00  1.9049e-01 -1.3217e-02  5.6589e+02  0:01:01   29

 turbulent viscosity limited to viscosity ratio of 1.000000e+05 in 54 cells 
  2972  1.5520e+00  1.9049e-01 -1.3219e-02  5.6581e+02  0:00:59   28

 turbulent viscosity limited to viscosity ratio of 1.000000e+05 in 62 cells 
  2973  1.5520e+00  1.9049e-01 -1.3220e-02  5.6573e+02  0:00:56   27

 turbulent viscosity limited to viscosity ratio of 1.000000e+05 in 59 cells 
  2974  1.5520e+00  1.9049e-01 -1.3222e-02  5.6564e+02  0:00:54   26

 turbulent viscosity limited to viscosity ratio of 1.000000e+05 in 56 cells 
  2975  1.5520e+00  1.9049e-01 -1.3224e-02  5.6556e+02  0:00:56   25

 turbulent viscosity limited to viscosity ratio of 1.000000e+05 in 56 cells 
  2976  1.5520e+00  1.9049e-01 -1.3225e-02  5.6547e+02  0:00:53   24

 turbulent viscosity limited to viscosity ratio of 1.000000e+05 in 52 cells 
  2977  1.5520e+00  1.9049e-01 -1.3227e-02  5.6538e+02  0:00:50   23

 turbulent viscosity limited to viscosity ratio of 1.000000e+05 in 45 cells 
  2978  1.5520e+00  1.9049e-01 -1.3229e-02  5.6529e+02  0:00:47   22

 turbulent viscosity limited to viscosity ratio of 1.000000e+05 in 47 cells 
  2979  1.5520e+00  1.9049e-01 -1.3230e-02  5.6519e+02  0:00:44   21

 turbulent viscosity limited to viscosity ratio of 1.000000e+05 in 47 cells 
  2980  1.5520e+00  1.9049e-01 -1.3232e-02  5.6510e+02  0:00:42   20

 turbulent viscosity limited to viscosity ratio of 1.000000e+05 in 51 cells 
  2981  1.5520e+00  1.9049e-01 -1.3234e-02  5.6501e+02  0:00:39   19

 turbulent viscosity limited to viscosity ratio of 1.000000e+05 in 51 cells 

  iter          cd          cl          cm       t_max     time/iter
  2982  1.5520e+00  1.9049e-01 -1.3236e-02  5.6491e+02  0:00:37   18

 turbulent viscosity limited to viscosity ratio of 1.000000e+05 in 54 cells 
  2983  1.5520e+00  1.9049e-01 -1.3238e-02  5.6481e+02  0:00:35   17

 turbulent viscosity limited to viscosity ratio of 1.000000e+05 in 55 cells 
  2984  1.5520e+00  1.9049e-01 -1.3239e-02  5.6472e+02  0:00:33   16

 turbulent viscosity limited to viscosity ratio of 1.000000e+05 in 51 cells 
  2985  1.5520e+00  1.9049e-01 -1.3241e-02  5.6462e+02  0:00:30   15

 turbulent viscosity limited to viscosity ratio of 1.000000e+05 in 56 cells 
  2986  1.5520e+00  1.9049e-01 -1.3243e-02  5.6451e+02  0:00:31   14

 turbulent viscosity limited to viscosity ratio of 1.000000e+05 in 64 cells 
  2987  1.5520e+00  1.9049e-01 -1.3245e-02  5.6441e+02  0:00:28   13

 turbulent viscosity limited to viscosity ratio of 1.000000e+05 in 61 cells 
  2988  1.5520e+00  1.9049e-01 -1.3247e-02  5.6430e+02  0:00:26   12

 turbulent viscosity limited to viscosity ratio of 1.000000e+05 in 58 cells 
  2989  1.5521e+00  1.9049e-01 -1.3249e-02  5.6420e+02  0:00:23   11

 turbulent viscosity limited to viscosity ratio of 1.000000e+05 in 54 cells 
  2990  1.5521e+00  1.9049e-01 -1.3251e-02  5.6409e+02  0:00:21   10

 turbulent viscosity limited to viscosity ratio of 1.000000e+05 in 54 cells 
  2991  1.5521e+00  1.9049e-01 -1.3253e-02  5.6398e+02  0:00:19    9

 turbulent viscosity limited to viscosity ratio of 1.000000e+05 in 51 cells 
  2992  1.5521e+00  1.9049e-01 -1.3255e-02  5.6386e+02  0:00:16    8

 turbulent viscosity limited to viscosity ratio of 1.000000e+05 in 52 cells 

  iter          cd          cl          cm       t_max     time/iter
  2993  1.5521e+00  1.9049e-01 -1.3258e-02  5.6375e+02  0:00:14    7

 turbulent viscosity limited to viscosity ratio of 1.000000e+05 in 51 cells 
  2994  1.5521e+00  1.9049e-01 -1.3260e-02  5.6363e+02  0:00:12    6

 turbulent viscosity limited to viscosity ratio of 1.000000e+05 in 50 cells 
  2995  1.5521e+00  1.9049e-01 -1.3262e-02  5.6352e+02  0:00:10    5

 turbulent viscosity limited to viscosity ratio of 1.000000e+05 in 51 cells 
  2996  1.5521e+00  1.9049e-01 -1.3265e-02  5.6340e+02  0:00:08    4

 turbulent viscosity limited to viscosity ratio of 1.000000e+05 in 53 cells 
  2997  1.5521e+00  1.9049e-01 -1.3267e-02  5.6328e+02  0:00:06    3

 turbulent viscosity limited to viscosity ratio of 1.000000e+05 in 52 cells 
  2998  1.5521e+00  1.9049e-01 -1.3270e-02  5.6316e+02  0:00:04    2

 turbulent viscosity limited to viscosity ratio of 1.000000e+05 in 59 cells 
  2999  1.5521e+00  1.9049e-01 -1.3273e-02  5.6304e+02  0:00:02    1

 turbulent viscosity limited to viscosity ratio of 1.000000e+05 in 58 cells 
  3000  1.5521e+00  1.9049e-01 -1.3275e-02  5.6292e+02  0:00:00    0
Writing "| gzip -2cf > SolutionMonitor.gz"...
Writing temporary file C:\\Users\\temis\\AppData\\Local\\Temp\\flntgz-171402 ...
Done.

Writing data to D:\\0_Andres\\1_Universidad\\MUSE\\AAV\\Trabajos_AAV\\Trabajo 1 - Viking_files\\dp0\\FLU-10\\Fluent\\SYS-11.1.ip ...
	x-coord
	y-coord
	z-coord
	pressure
	x-velocity
	y-velocity
	z-velocity
	temperature
	k
	omega
Done.

Writing to temis:"D:\0_Andres\1_Universidad\MUSE\AAV\Trabajos_AAV\Trabajo 1 - Viking_files\dp0\FLU-10\Fluent\SYS-11.1-1.cas.h5" in NODE0 mode and compression level 1 ...
  Writing mesh ...
      487280 cells,     1 zone  ...
     1061384 faces,     5 zones ...
      138477 nodes,     1 zone  ...
  Done.
Done.

Writing to temis:"D:\0_Andres\1_Universidad\MUSE\AAV\Trabajos_AAV\Trabajo 1 - Viking_files\dp0\FLU-10\Fluent\SYS-11.1-1-03000.dat.h5" in NODE0 mode and compression level 1 ...
  Writing results.
Done.

Performance Timer for 3001 iterations on 4 compute nodes
  Average wall-clock time per iteration:              1.899 sec
  Global reductions per iteration:                      113 ops
  Global reductions time per iteration:               0.000 sec (0.0%)
  Message count per iteration:                         2335 messages
  Data transfer per iteration:                       17.719 MB
  LE solves per iteration:                                2 solves
  LE wall-clock time per iteration:                   0.801 sec (42.2%)
  LE global solves per iteration:                         1 solves
  LE global wall-clock time per iteration:            0.000 sec (0.0%)
  LE global matrix maximum size:                        53
  AMG cycles per iteration:                           3.010 cycles
  Relaxation sweeps per iteration:                      125 sweeps
  Relaxation exchanges per iteration:                     0 exchanges
  LE early protections (stall) per iteration:           0.002 times
  LE early protections (divergence) per iteration:      0.001 times
  Total SVARS touched:                              401

  Total wall-clock time:                           5698.448 sec

